$DATA1 SOURCE='HSPICE' VERSION='K-2015.06-2 linux64'
.TITLE '.temp 25'
 f_1              f_2              f_3              f_4             
 f_5              f_6              f_7              f_8             
 f_9              f_10             f_11             f_12            
 f_13             f_14             f_15             f_16            
 f_17             f_18             f_19             f_20            
 f_21             f_22             f_23             f_24            
 f_25             f_26             f_27             f_28            
 f_29             f_30             f_31             f_32            
 f_33             f_34             f_35             f_36            
 f_37             f_38             f_39             f_40            
 f_41             f_42             f_43             f_44            
 f_45             f_46             f_47             f_48            
 f_49             f_50             f_51             f_52            
 f_53             f_54             f_55             f_56            
 f_57             f_58             f_59             f_60            
 f_61             f_62             f_63             f_64            
 temper           alter#          
  3.1610e-02         1.05331          1.05389          1.05363      
  2.8705e-02         1.05307        4.3814e-02       5.0978e-03     
  4.5716e-03         1.05377          1.05375          1.05359      
  3.1870e-02         1.05361        2.6433e-02       3.8821e-03     
  3.8262e-03       4.0480e-03       3.8269e-03       4.9709e-03     
  4.3129e-03       4.9709e-03       4.3129e-03       4.9633e-03     
  4.3129e-03       4.9709e-03       4.3129e-03       4.9634e-03     
  4.3129e-03       4.0417e-03       3.8429e-03       4.0195e-03     
  4.5434e-03         1.05377          1.05375          1.05375      
    1.05389          1.05373          1.05374          1.05350      
  3.1712e-02         1.05389          1.05374          1.05375      
    1.05392          1.05357        2.7010e-02       4.0372e-03     
  4.6995e-03         1.05392          1.05390          1.05390      
    1.05374          1.05362        3.0101e-02       3.8681e-03     
  4.6245e-03         1.05364        2.6081e-02       3.9384e-03     
  4.3200e-03       3.8378e-03       4.2539e-03       4.2140e-03     
   25.00000       1               
