Using: /usr/local/synopsys/hspice_2015.06/hspice/linux64/hspice  -i 'four_bit_adder_tb.sp'
 ****** HSPICE -- K-2015.06-2 linux64 (Jun 25 2015) ******                      
  Copyright (c) 1986 - 2022 by Synopsys, Inc. All Rights Reserved.              
  This software and the associated documentation are proprietary
  to Synopsys, Inc. This software may only be used in accordance
  with the terms and conditions of a written license agreement with
  Synopsys, Inc. All other use, reproduction, or distribution of
  this software is strictly prohibited.
  Input File: four_bit_adder_tb.sp                                              
  Command line options: /usr/local/synopsys/hspice_2015.06/hspice/linux64/hspice -i four_bit_adder_tb.sp
 lic:  
 lic: FLEXlm: v11.2.1 
 lic: USER:   alrosen2             HOSTNAME: eecad101 
 lic: HOSTID: "e4434bdac7ce"       PID:      62082 
 lic: Using FLEXlm license file: 
 lic: 27020@enlicense9.eas.asu.edu 
 lic: Checkout 1 hspice 
 lic: License/Maintenance for hspice will expire on 18-jun-2022/2020.12 
 lic: 10(in_use)/150(total) FLOATING license(s) on SERVER 27020@enlicense9.eas.asu.edu 
 lic:   
 Init: read install configuration file: /usr/local/synopsys/hspice_2015.06/hspice/meta.cfg
  **warning** (./four_bit_adder.sp:18) Parameter name is not defined in .param. Please enter parameter variable with their respective value/expression.
1****** HSPICE -- K-2015.06-2 linux64 (Jun 25 2015) ******                      
 ******  
 # test bench for four bit adder simulation

 ****** circuit name directory
 circuit number to circuit name directory
   number circuitname                     definition         multiplier
        0 main circuit
        1 xfour_bit_adder.                four_bit_adder     1.00 
        2 xfour_bit_adder.xi3.            one_bit_adder      1.00 
        3 xfour_bit_adder.xi2.            one_bit_adder      1.00 
        4 xfour_bit_adder.xi1.            one_bit_adder      1.00 
        5 xfour_bit_adder.xi0.            one_bit_adder      1.00 
        6 xfour_bit_adder.xi3.xmm26.      p105               1.00 
        7 xfour_bit_adder.xi3.xmm22.      p105               1.00 
        8 xfour_bit_adder.xi3.xmm21.      p105               1.00 
        9 xfour_bit_adder.xi3.xmm20.      p105               1.00 
       10 xfour_bit_adder.xi3.xmm15.      p105               1.00 
       11 xfour_bit_adder.xi3.xmm14.      p105               1.00 
       12 xfour_bit_adder.xi3.xmm13.      p105               1.00 
       13 xfour_bit_adder.xi3.xmm12.      p105               1.00 
       14 xfour_bit_adder.xi3.xmm10.      p105               1.00 
       15 xfour_bit_adder.xi3.xmm5.       p105               1.00 
       16 xfour_bit_adder.xi3.xmm4.       p105               1.00 
       17 xfour_bit_adder.xi3.xmm3.       p105               1.00 
       18 xfour_bit_adder.xi3.xmm2.       p105               1.00 
       19 xfour_bit_adder.xi3.xmm0.       p105               1.00 
       20 xfour_bit_adder.xi3.xmm27.      n105               1.00 
       21 xfour_bit_adder.xi3.xmm25.      n105               1.00 
       22 xfour_bit_adder.xi3.xmm24.      n105               1.00 
       23 xfour_bit_adder.xi3.xmm23.      n105               1.00 
       24 xfour_bit_adder.xi3.xmm18.      n105               1.00 
       25 xfour_bit_adder.xi3.xmm16.      n105               1.00 
       26 xfour_bit_adder.xi3.xmm17.      n105               1.00 
       27 xfour_bit_adder.xi3.xmm19.      n105               1.00 
       28 xfour_bit_adder.xi3.xmm11.      n105               1.00 
       29 xfour_bit_adder.xi3.xmm9.       n105               1.00 
       30 xfour_bit_adder.xi3.xmm8.       n105               1.00 
       31 xfour_bit_adder.xi3.xmm7.       n105               1.00 
       32 xfour_bit_adder.xi3.xmm6.       n105               1.00 
       33 xfour_bit_adder.xi3.xmm1.       n105               1.00 
       34 xfour_bit_adder.xi2.xmm26.      p105               1.00 
       35 xfour_bit_adder.xi2.xmm22.      p105               1.00 
       36 xfour_bit_adder.xi2.xmm21.      p105               1.00 
       37 xfour_bit_adder.xi2.xmm20.      p105               1.00 
       38 xfour_bit_adder.xi2.xmm15.      p105               1.00 
       39 xfour_bit_adder.xi2.xmm14.      p105               1.00 
       40 xfour_bit_adder.xi2.xmm13.      p105               1.00 
       41 xfour_bit_adder.xi2.xmm12.      p105               1.00 
       42 xfour_bit_adder.xi2.xmm10.      p105               1.00 
       43 xfour_bit_adder.xi2.xmm5.       p105               1.00 
       44 xfour_bit_adder.xi2.xmm4.       p105               1.00 
       45 xfour_bit_adder.xi2.xmm3.       p105               1.00 
       46 xfour_bit_adder.xi2.xmm2.       p105               1.00 
       47 xfour_bit_adder.xi2.xmm0.       p105               1.00 
       48 xfour_bit_adder.xi2.xmm27.      n105               1.00 
       49 xfour_bit_adder.xi2.xmm25.      n105               1.00 
       50 xfour_bit_adder.xi2.xmm24.      n105               1.00 
       51 xfour_bit_adder.xi2.xmm23.      n105               1.00 
       52 xfour_bit_adder.xi2.xmm18.      n105               1.00 
       53 xfour_bit_adder.xi2.xmm16.      n105               1.00 
       54 xfour_bit_adder.xi2.xmm17.      n105               1.00 
       55 xfour_bit_adder.xi2.xmm19.      n105               1.00 
       56 xfour_bit_adder.xi2.xmm11.      n105               1.00 
       57 xfour_bit_adder.xi2.xmm9.       n105               1.00 
       58 xfour_bit_adder.xi2.xmm8.       n105               1.00 
       59 xfour_bit_adder.xi2.xmm7.       n105               1.00 
       60 xfour_bit_adder.xi2.xmm6.       n105               1.00 
       61 xfour_bit_adder.xi2.xmm1.       n105               1.00 
       62 xfour_bit_adder.xi1.xmm26.      p105               1.00 
       63 xfour_bit_adder.xi1.xmm22.      p105               1.00 
       64 xfour_bit_adder.xi1.xmm21.      p105               1.00 
       65 xfour_bit_adder.xi1.xmm20.      p105               1.00 
       66 xfour_bit_adder.xi1.xmm15.      p105               1.00 
       67 xfour_bit_adder.xi1.xmm14.      p105               1.00 
       68 xfour_bit_adder.xi1.xmm13.      p105               1.00 
       69 xfour_bit_adder.xi1.xmm12.      p105               1.00 
       70 xfour_bit_adder.xi1.xmm10.      p105               1.00 
       71 xfour_bit_adder.xi1.xmm5.       p105               1.00 
       72 xfour_bit_adder.xi1.xmm4.       p105               1.00 
       73 xfour_bit_adder.xi1.xmm3.       p105               1.00 
       74 xfour_bit_adder.xi1.xmm2.       p105               1.00 
       75 xfour_bit_adder.xi1.xmm0.       p105               1.00 
       76 xfour_bit_adder.xi1.xmm27.      n105               1.00 
       77 xfour_bit_adder.xi1.xmm25.      n105               1.00 
       78 xfour_bit_adder.xi1.xmm24.      n105               1.00 
       79 xfour_bit_adder.xi1.xmm23.      n105               1.00 
       80 xfour_bit_adder.xi1.xmm18.      n105               1.00 
       81 xfour_bit_adder.xi1.xmm16.      n105               1.00 
       82 xfour_bit_adder.xi1.xmm17.      n105               1.00 
       83 xfour_bit_adder.xi1.xmm19.      n105               1.00 
       84 xfour_bit_adder.xi1.xmm11.      n105               1.00 
       85 xfour_bit_adder.xi1.xmm9.       n105               1.00 
       86 xfour_bit_adder.xi1.xmm8.       n105               1.00 
       87 xfour_bit_adder.xi1.xmm7.       n105               1.00 
       88 xfour_bit_adder.xi1.xmm6.       n105               1.00 
       89 xfour_bit_adder.xi1.xmm1.       n105               1.00 
       90 xfour_bit_adder.xi0.xmm26.      p105               1.00 
       91 xfour_bit_adder.xi0.xmm22.      p105               1.00 
       92 xfour_bit_adder.xi0.xmm21.      p105               1.00 
       93 xfour_bit_adder.xi0.xmm20.      p105               1.00 
       94 xfour_bit_adder.xi0.xmm15.      p105               1.00 
       95 xfour_bit_adder.xi0.xmm14.      p105               1.00 
       96 xfour_bit_adder.xi0.xmm13.      p105               1.00 
       97 xfour_bit_adder.xi0.xmm12.      p105               1.00 
       98 xfour_bit_adder.xi0.xmm10.      p105               1.00 
       99 xfour_bit_adder.xi0.xmm5.       p105               1.00 
      100 xfour_bit_adder.xi0.xmm4.       p105               1.00 
      101 xfour_bit_adder.xi0.xmm3.       p105               1.00 
      102 xfour_bit_adder.xi0.xmm2.       p105               1.00 
      103 xfour_bit_adder.xi0.xmm0.       p105               1.00 
      104 xfour_bit_adder.xi0.xmm27.      n105               1.00 
      105 xfour_bit_adder.xi0.xmm25.      n105               1.00 
      106 xfour_bit_adder.xi0.xmm24.      n105               1.00 
      107 xfour_bit_adder.xi0.xmm23.      n105               1.00 
      108 xfour_bit_adder.xi0.xmm18.      n105               1.00 
      109 xfour_bit_adder.xi0.xmm16.      n105               1.00 
      110 xfour_bit_adder.xi0.xmm17.      n105               1.00 
      111 xfour_bit_adder.xi0.xmm19.      n105               1.00 
      112 xfour_bit_adder.xi0.xmm11.      n105               1.00 
      113 xfour_bit_adder.xi0.xmm9.       n105               1.00 
      114 xfour_bit_adder.xi0.xmm8.       n105               1.00 
      115 xfour_bit_adder.xi0.xmm7.       n105               1.00 
      116 xfour_bit_adder.xi0.xmm6.       n105               1.00 
      117 xfour_bit_adder.xi0.xmm1.       n105               1.00 
1****** HSPICE -- K-2015.06-2 linux64 (Jun 25 2015) ******                      
 ******  
 # test bench for four bit adder simulation

 ****** mos   model parameters tnom=  25.000 temp=  25.000 ******
 Model file: /afs/asu.edu/users/a/l/r/alrosen2/425_lab/iPDK/hspice/saed32nm.lib
 Model line:         2403
 Model Name: p105  
 BSIM4 Model (Level 54)
    MOBMOD = 0
    BINUNIT = 1
    PARAMCHK = 0
    CAPMOD = 2
    DIOMOD = 1
    RDSMOD = 0
    TRNQSMOD = 0
    ACNQSMOD = 0
    RBODYMOD = 0
    RGATEMOD = 0
    PERMOD = 1
    GEOMOD = 0
    RGEOMOD = 0
    FNOIMOD = 1
    TNOIMOD = 0
    IGCMOD = 1
    IGBMOD = 1
    STIMOD = 1
    VBFWDMOD = 0
    VERSION =    4.5 
    TOXREF = 2.62e-09 
    TOXE = 2.62e-09 
    TOXP = 2.295e-09 
    TOXM = 2.62e-09 
    DTOX =      0 
    EPSROX =    3.9 
    CDSC = 0.1605 
    CDSCB =   0.03 
    CDSCD =      0 
    CIT =      0 
    NFACTOR =      1 
    XJ =  1e-07 
    VSAT = 7.58e+04 
    A0 =  4.509 
    AGS = 0.8198 
    A1 =      0 
    A2 =      1 
    AT =      0 
    KETA = 0.05365 
    NSUB =  6e+16 
    NDEP =  1e+17 
    NSD =  1e+20 
    NGATE = 2.452e+20 
    GAMMA1 =      0 
    GAMMA2 =      0 
    VBX =      0 
    VBM =     -3 
    XT = 1.55e-07 
    K1 = 0.4225 
    KT1 = -0.1673 
    KT1L = -5.206e-09 
    KT2 = -0.0214 
    K2 = -0.0358 
    K3 =  -0.15 
    K3B = 0.0348 
    LPE0 =  5e-08 
    LPEB = 3.777e-09 
    DVTP0 =  8e-07 
    DVTP1 =      0 
    W0 =      0 
    DVT0 =   15.2 
    DVT1 =   1.38 
    DVT2 = 0.0676 
    DVT0W = -0.001592 
    DVT1W =  1e+06 
    DVT2W =   0.25 
    DROUT =   0.56 
    DSUB = 0.3276 
    VTH0 = -0.2565 
    EU =      1 
    UA = 1.203e-15 
    UA1 = -0.0008414 
    UB = 1.67e-19 
    UB1 = 0.002181 
    UC = 2.853e-15 
    UC1 = -0.01207 
    U0 =  60.95 
    UTE = -0.9859 
    VOFF = -0.02239 
    VOFFL = -2.144e-09 
    MINV =  0.736 
    FPROUT =  300.8 
    PDITS =  0.676 
    PDITSD = 0.6156 
    PDITSL = 1.543e+06 
    DELTA =   0.01 
    RDSW =  390.9 
    RDSWMIN =      0 
    RDWMIN =      0 
    RSWMIN =      0 
    RDW =    100 
    RSW =    100 
    PRWG =      0 
    PRWB =      0 
    PRT = 0.0017 
    ETA0 =  0.155 
    ETAB = -0.0843 
    PCLM = 0.1352 
    PDIBLC1 =  1e-07 
    PDIBLC2 =  1e-05 
    PDIBLCB =      0 
    PSCBE1 =  5e+09 
    PSCBE2 =  5e-06 
    PVAG =      2 
    WR =      1 
    DWG =      0 
    DWB =      0 
    XW =      0 
    XWREF =      0 
    XL =  2e-09 
    XLREF =  2e-09 
    B0 =  2e-08 
    B1 =      0 
    ALPHA0 = 8.656e-12 
    ALPHA1 =      0 
    AGIDL = 4.612e-11 
    BGIDL = 6.495e+08 
    CGIDL =  21.15 
    PHIN =   -0.1 
    EGIDL = 0.2457 
    AIGC = 0.00766 
    BIGC = 0.0013 
    CIGC =   0.05 
    AIGSD = 0.00465 
    BIGSD = 0.0003 
    CIGSD = 0.008847 
    AIGBACC = 0.01242 
    BIGBACC = 0.002439 
    CIGBACC = -1.5e-10 
    AIGBINV = 0.01311 
    BIGBINV = 0.002519 
    CIGBINV = 0.0005126 
    NIGC =      3 
    NIGBINV =      1 
    NIGBACC =  8.977 
    NTOX =      1 
    EIGBINV = 1.726e-06 
    PIGCD =      1 
    POXEDGE =  1.404 
    XRCRG1 =     12 
    TNOIA =    1.5 
    TNOIB =    3.5 
    NTNOI =      1 
    XRCRG2 =      1 
    BETA0 =      6 
    IJTHDFWD =    0.1 
    IJTHSFWD =    0.1 
    IJTHDREV =    0.1 
    IJTHSREV =    0.1 
    XJBVD =      1 
    XJBVS =      1 
    BVD =     12 
    BVS =     12 
    VFB =     -1 
    GBMIN =  1e-12 
    RBDB =     50 
    RBPB =     50 
    RBSB =     50 
    RBPS =     50 
    RBPD =     50 
    CGSL = 6.5e-11 
    CGDL = 6.5e-11 
    CKAPPAS =   0.66 
    CKAPPAD =   0.66 
    CF =      0 
    CLC =      0 
    CLE =    0.6 
    DWC =      0 
    DLC = 7.256e-09 
    DLCIG = 5.462e-09 
    DWJ =      0 
    VFBCV =     -1 
    ACDE =  0.518 
    MOIN =     15 
    NOFF =  1.801 
    VOFFCV = 0.08105 
    DMCG =  7e-08 
    DMCI = 3.5e-08 
    DMDG =  6e-08 
    DMCGT =      0 
    XGW =  4e-08 
    XGL = -2e-09 
    RSHG =     11 
    NGCON =      1 
    TCJ = 0.001028 
    TPB = 0.001529 
    TCJSW = 0.001049 
    TPBSW = 0.0004987 
    TCJSWG = 0.0006756 
    TPBSWG = 0.0003417 
    SK0 =      0 
    SK1 =      0 
    SK2 =      0 
    SL =  2e-06 
    SW =  2e-06 
    K =      0 
    LNFACTOR = -0.007 
    LA0 =   0.22 
    LAGS = 0.3509 
    LNDEP = 7.826e+16 
    LUTE = 0.01626 
    LMINV = 0.03843 
    LETAB = 0.002324 
    LAIGC = -2e-05 
    LNOFF = 0.05048 
    LVOFFCV = -0.001943 
    WU0 =  2.292 
    PVSAT =    130 
    PETA0 = -0.0002 
    TNOM =  298.1 
    CGSO = 1.48e-10 
    CGDO = 1.48e-10 
    CGBO =      0 
    XPART =      0 
    RSH =      9 
    JSS = 8.942e-07 
    JSWS = 1.348e-13 
    JSWGS = 1.339e-13 
    PBS = 0.7283 
    MJS = 0.3521 
    PBSWS =   0.94 
    MJSWS = 0.1185 
    CJS = 0.001346 
    CJSWS = 6.5e-11 
    NJS =  1.098 
    PBSWGS = 0.7408 
    MJSWGS = 0.5345 
    CJSWGS = 2.99e-10 
    XTIS =      3 
    JSD = 8.942e-07 
    JSWD = 1.348e-13 
    JSWGD = 1.339e-13 
    PBD = 0.7283 
    MJD = 0.3521 
    PBSWD =   0.94 
    MJSWD = 0.1185 
    CJD = 0.001346 
    CJSWD = 6.5e-11 
    NJD =  1.098 
    PBSWGD = 0.7408 
    MJSWGD = 0.5345 
    CJSWGD = 2.99e-10 
    XTID =      3 
    LMLT =      1 
    WMLT =      1 
    LINT =      0 
    LL =      0 
    LLC =      0 
    LLN =      1 
    LW =      0 
    LWC =      0 
    LWN =      1 
    LWL =      0 
    LWLC =      0 
    LMIN =      0 
    LMAX =      1 
    WINT =      0 
    WL =      0 
    WLC =      0 
    WLN =      1 
    WW =      0 
    WWC =      0 
    WWN =      1 
    WWL =      0 
    WWLC =      0 
    WMIN =      0 
    WMAX =      1 
    NOIA = 8.203e+41 
    NOIB = 1.947e+22 
    NOIC = 3.282e+09 
    EM = 4.1e+07 
    EF =   1.04 
    AF =      1 
    KF =      0 
    TRS =      0 
    TRD =      0 
    TEMPMOD  =      1 
    LAMBDA   =      0 
    VTL      =  2e+05 m/s
    LC       =  5e-09 
    XN       =      3 
    LLAMBDA  =      0 
    LVTL     =      0 
    LXN      =      0 
    WLAMBDA  =      0 
    WVTL     =      0 
    WXN      =      0 
    PLAMBDA  =      0 
    PVTL     =      0 
    PXN      =      0 
    RNOIA    =  0.577 
    RNOIB    = 0.5164 
    SAREF(SA0) = 4.48e-07 m
    SBREF(SB0) = 4.48e-07 m
    WLOD     =      0 m
    KU0      = -2.75e-09 1/m
    KVSAT    =      0 
    KVTH0    = -1.115e-09 m
    TKU0     =      0 
    LLODKU0  =      0 
    WLODKU0  =      0 
    LLODVTH  =      0 
    WLODVTH  =      0 
    LKU0     =      0 
    WKU0     =      0 
    PKU0     =      0 
    LKVTH0   =      0 
    WKVTH0   =      0 
    PKVTH0   =      0 
    STK2     =      0 
    LODK2    =      1 
    STETA0   =      0 
    LODETA0  =      1 
    LXRCRG1  =      0 
    WXRCRG1  =      0 
    PXRCRG1  =      0 
    LXRCRG2  =      0 
    WXRCRG2  =      0 
    PXRCRG2  =      0 
     *** UCB's BSIM4.4.0 new diode model is activated. ***
    *** UCB's Diode Model Parameters ***
    JTSS         =  0.002 
    JTSSWS       =      0 
    JTSSWGS      = 3.8e-11 
    JTSD         =  0.002 
    JTSSWD       =      0 
    JTSSWGD      = 3.8e-11 
    NJTS         =     20 
    NJTSSW       =     20 
    NJTSSWG      =  1.695 
    XTSS         =   0.02 
    XTSSWS       =   0.02 
    XTSSWGS      = 0.08619 
    XTSD         =   0.02 
    XTSSWD       =   0.02 
    XTSSWGD      = 0.08619 
    TNJTS        =      0 
    TNJTSSW      =      0 
    TNJTSSWG     =   0.32 
    VFBSDOFF     =      0 
    LVFBSDOFF    =      0 
    WVFBSDOFF    =      0 
    PVFBSDOFF    =      0 
    LINTNOI      =      0 
    VTSS         =     10 
    VTSD         =     10 
    VTSSWS       =     10 
    VTSSWD       =     10 
    VTSSWGS      = 0.9376 
    VTSSWGD      = 0.9376 
    TTDIOMOD     =      1 
     *** UCB's BSIM4.5.0 new model is activated. ***
    UD         =      0 
    UD1        =      0 
    UP         =  -0.45 
    LP         =  6e-08 
    TVOFF      = 0.01744 
    TVFBSDOFF  =      0 
    RBPS0      =     50 
    RBPSL      =      0 
    RBPSW      =      0 
    RBPSNF     =      0 
    RBPD0      =     50 
    RBPDL      =      0 
    RBPDW      =      0 
    RBPDNF     =      0 
    RBPBX0     =    100 
    RBPBXL     =      0 
    RBPBXW     =      0 
    RBPBXNF    =      0 
    RBPBY0     =    100 
    RBPBYL     =      0 
    RBPBYW     =      0 
    RBPBYNF    =      0 
    RBSBX0     =    100 
    RBSBY0     =    100 
    RBDBX0     =    100 
    RBDBY0     =    100 
    RBSDBXL    =      0 
    RBSDBXW    =      0 
    RBSDBXNF   =      0 
    RBSDBYL    =      0 
    RBSDBYW    =      0 
    RBSDBYNF   =      0 
    LUD        =      0 
    LUD1       =      0 
    LUP        =      0 
    LLP        =      0 
    LTVOFF     =      0 
    LTVFBSDOFF =      0 
    WUD        =      0 
    WUD1       =      0 
    WUP        =      0 
    WLP        =      0 
    WTVOFF     =      0 
    WTVFBSDOFF =      0 
    PUD        =      0 
    PUD1       =      0 
    PUP        =      0 
    PLP        =      0 
    PTVOFF     =      0 
    PTVFBSDOFF =      0 
    WEB        = 6.7e+05 
    WEC        = -7e+05 
    KVTH0WE    = -1e-06 
    K2WE       =      0 
    KU0WE      =      0 
    SCREF      = 2.5e-06 
    WPEMOD     =      1 
    LKVTH0WE   =      0 
    LK2WE      =      0 
    LKU0WE     =      0 
    WKVTH0WE   =      0 
    WK2WE      =      0 
    WKU0WE     =      0 
    PKVTH0WE   =      0 
    PK2WE      =      0 
    PKU0WE     =      0 
 Model file: /afs/asu.edu/users/a/l/r/alrosen2/425_lab/iPDK/hspice/saed32nm.lib
 Model line:         2403
 Model Name: p105  
 BSIM4 Model (Level 54)
    MOBMOD = 0
    BINUNIT = 1
    PARAMCHK = 0
    CAPMOD = 2
    DIOMOD = 1
    RDSMOD = 0
    TRNQSMOD = 0
    ACNQSMOD = 0
    RBODYMOD = 0
    RGATEMOD = 0
    PERMOD = 1
    GEOMOD = 0
    RGEOMOD = 0
    FNOIMOD = 1
    TNOIMOD = 0
    IGCMOD = 1
    IGBMOD = 1
    STIMOD = 1
    VBFWDMOD = 0
    VERSION =    4.5 
    TOXREF = 2.62e-09 
    TOXE = 2.62e-09 
    TOXP = 2.295e-09 
    TOXM = 2.62e-09 
    DTOX =      0 
    EPSROX =    3.9 
    CDSC = 0.1605 
    CDSCB =   0.03 
    CDSCD =      0 
    CIT =      0 
    NFACTOR =      1 
    XJ =  1e-07 
    VSAT = 7.58e+04 
    A0 =  4.509 
    AGS = 0.8198 
    A1 =      0 
    A2 =      1 
    AT =      0 
    KETA = 0.05365 
    NSUB =  6e+16 
    NDEP =  1e+17 
    NSD =  1e+20 
    NGATE = 2.452e+20 
    GAMMA1 =      0 
    GAMMA2 =      0 
    VBX =      0 
    VBM =     -3 
    XT = 1.55e-07 
    K1 = 0.4225 
    KT1 = -0.1673 
    KT1L = -5.206e-09 
    KT2 = -0.0214 
    K2 = -0.0358 
    K3 =  -0.15 
    K3B = 0.0348 
    LPE0 =  5e-08 
    LPEB = 3.777e-09 
    DVTP0 =  8e-07 
    DVTP1 =      0 
    W0 =      0 
    DVT0 =   15.2 
    DVT1 =   1.38 
    DVT2 = 0.0676 
    DVT0W = -0.001592 
    DVT1W =  1e+06 
    DVT2W =   0.25 
    DROUT =   0.56 
    DSUB = 0.3276 
    VTH0 = -0.2565 
    EU =      1 
    UA = 1.203e-15 
    UA1 = -0.0008414 
    UB = 1.67e-19 
    UB1 = 0.002181 
    UC = 2.853e-15 
    UC1 = -0.01207 
    U0 =  60.95 
    UTE = -0.9859 
    VOFF = -0.02239 
    VOFFL = -2.144e-09 
    MINV =  0.736 
    FPROUT =  300.8 
    PDITS =  0.676 
    PDITSD = 0.6156 
    PDITSL = 1.543e+06 
    DELTA =   0.01 
    RDSW =  390.9 
    RDSWMIN =      0 
    RDWMIN =      0 
    RSWMIN =      0 
    RDW =    100 
    RSW =    100 
    PRWG =      0 
    PRWB =      0 
    PRT = 0.0017 
    ETA0 =  0.155 
    ETAB = -0.0843 
    PCLM = 0.1352 
    PDIBLC1 =  1e-07 
    PDIBLC2 =  1e-05 
    PDIBLCB =      0 
    PSCBE1 =  5e+09 
    PSCBE2 =  5e-06 
    PVAG =      2 
    WR =      1 
    DWG =      0 
    DWB =      0 
    XW =      0 
    XWREF =      0 
    XL =  2e-09 
    XLREF =  2e-09 
    B0 =  2e-08 
    B1 =      0 
    ALPHA0 = 8.656e-12 
    ALPHA1 =      0 
    AGIDL = 4.612e-11 
    BGIDL = 6.495e+08 
    CGIDL =  21.15 
    PHIN =   -0.1 
    EGIDL = 0.2457 
    AIGC = 0.00766 
    BIGC = 0.0013 
    CIGC =   0.05 
    AIGSD = 0.00465 
    BIGSD = 0.0003 
    CIGSD = 0.008847 
    AIGBACC = 0.01242 
    BIGBACC = 0.002439 
    CIGBACC = -1.5e-10 
    AIGBINV = 0.01311 
    BIGBINV = 0.002519 
    CIGBINV = 0.0005126 
    NIGC =      3 
    NIGBINV =      1 
    NIGBACC =  8.977 
    NTOX =      1 
    EIGBINV = 1.726e-06 
    PIGCD =      1 
    POXEDGE =  1.404 
    XRCRG1 =     12 
    TNOIA =    1.5 
    TNOIB =    3.5 
    NTNOI =      1 
    XRCRG2 =      1 
    BETA0 =      6 
    IJTHDFWD =    0.1 
    IJTHSFWD =    0.1 
    IJTHDREV =    0.1 
    IJTHSREV =    0.1 
    XJBVD =      1 
    XJBVS =      1 
    BVD =     12 
    BVS =     12 
    VFB =     -1 
    GBMIN =  1e-12 
    RBDB =     50 
    RBPB =     50 
    RBSB =     50 
    RBPS =     50 
    RBPD =     50 
    CGSL = 6.5e-11 
    CGDL = 6.5e-11 
    CKAPPAS =   0.66 
    CKAPPAD =   0.66 
    CF =      0 
    CLC =      0 
    CLE =    0.6 
    DWC =      0 
    DLC = 7.256e-09 
    DLCIG = 5.462e-09 
    DWJ =      0 
    VFBCV =     -1 
    ACDE =  0.518 
    MOIN =     15 
    NOFF =  1.801 
    VOFFCV = 0.08105 
    DMCG =  7e-08 
    DMCI = 3.5e-08 
    DMDG =  6e-08 
    DMCGT =      0 
    XGW =  4e-08 
    XGL = -2e-09 
    RSHG =     11 
    NGCON =      1 
    TCJ = 0.001028 
    TPB = 0.001529 
    TCJSW = 0.001049 
    TPBSW = 0.0004987 
    TCJSWG = 0.0006756 
    TPBSWG = 0.0003417 
    SK0 =      0 
    SK1 =      0 
    SK2 =      0 
    SL =  2e-06 
    SW =  2e-06 
    K =      0 
    LNFACTOR = -0.007 
    LA0 =   0.22 
    LAGS = 0.3509 
    LNDEP = 7.826e+16 
    LUTE = 0.01626 
    LMINV = 0.03843 
    LETAB = 0.002324 
    LAIGC = -2e-05 
    LNOFF = 0.05048 
    LVOFFCV = -0.001943 
    WU0 =  2.292 
    PVSAT =    130 
    PETA0 = -0.0002 
    TNOM =  298.1 
    CGSO = 1.48e-10 
    CGDO = 1.48e-10 
    CGBO =      0 
    XPART =      0 
    RSH =      9 
    JSS = 8.942e-07 
    JSWS = 1.348e-13 
    JSWGS = 1.339e-13 
    PBS = 0.7283 
    MJS = 0.3521 
    PBSWS =   0.94 
    MJSWS = 0.1185 
    CJS = 0.001346 
    CJSWS = 6.5e-11 
    NJS =  1.098 
    PBSWGS = 0.7408 
    MJSWGS = 0.5345 
    CJSWGS = 2.99e-10 
    XTIS =      3 
    JSD = 8.942e-07 
    JSWD = 1.348e-13 
    JSWGD = 1.339e-13 
    PBD = 0.7283 
    MJD = 0.3521 
    PBSWD =   0.94 
    MJSWD = 0.1185 
    CJD = 0.001346 
    CJSWD = 6.5e-11 
    NJD =  1.098 
    PBSWGD = 0.7408 
    MJSWGD = 0.5345 
    CJSWGD = 2.99e-10 
    XTID =      3 
    LMLT =      1 
    WMLT =      1 
    LINT =      0 
    LL =      0 
    LLC =      0 
    LLN =      1 
    LW =      0 
    LWC =      0 
    LWN =      1 
    LWL =      0 
    LWLC =      0 
    LMIN =      0 
    LMAX =      1 
    WINT =      0 
    WL =      0 
    WLC =      0 
    WLN =      1 
    WW =      0 
    WWC =      0 
    WWN =      1 
    WWL =      0 
    WWLC =      0 
    WMIN =      0 
    WMAX =      1 
    NOIA = 8.203e+41 
    NOIB = 1.947e+22 
    NOIC = 3.282e+09 
    EM = 4.1e+07 
    EF =   1.04 
    AF =      1 
    KF =      0 
    TRS =      0 
    TRD =      0 
    TEMPMOD  =      1 
    LAMBDA   =      0 
    VTL      =  2e+05 m/s
    LC       =  5e-09 
    XN       =      3 
    LLAMBDA  =      0 
    LVTL     =      0 
    LXN      =      0 
    WLAMBDA  =      0 
    WVTL     =      0 
    WXN      =      0 
    PLAMBDA  =      0 
    PVTL     =      0 
    PXN      =      0 
    RNOIA    =  0.577 
    RNOIB    = 0.5164 
    SAREF(SA0) = 4.48e-07 m
    SBREF(SB0) = 4.48e-07 m
    WLOD     =      0 m
    KU0      = -2.75e-09 1/m
    KVSAT    =      0 
    KVTH0    = -1.115e-09 m
    TKU0     =      0 
    LLODKU0  =      0 
    WLODKU0  =      0 
    LLODVTH  =      0 
    WLODVTH  =      0 
    LKU0     =      0 
    WKU0     =      0 
    PKU0     =      0 
    LKVTH0   =      0 
    WKVTH0   =      0 
    PKVTH0   =      0 
    STK2     =      0 
    LODK2    =      1 
    STETA0   =      0 
    LODETA0  =      1 
    LXRCRG1  =      0 
    WXRCRG1  =      0 
    PXRCRG1  =      0 
    LXRCRG2  =      0 
    WXRCRG2  =      0 
    PXRCRG2  =      0 
     *** UCB's BSIM4.4.0 new diode model is activated. ***
    *** UCB's Diode Model Parameters ***
    JTSS         =  0.002 
    JTSSWS       =      0 
    JTSSWGS      = 3.8e-11 
    JTSD         =  0.002 
    JTSSWD       =      0 
    JTSSWGD      = 3.8e-11 
    NJTS         =     20 
    NJTSSW       =     20 
    NJTSSWG      =  1.695 
    XTSS         =   0.02 
    XTSSWS       =   0.02 
    XTSSWGS      = 0.08619 
    XTSD         =   0.02 
    XTSSWD       =   0.02 
    XTSSWGD      = 0.08619 
    TNJTS        =      0 
    TNJTSSW      =      0 
    TNJTSSWG     =   0.32 
    VFBSDOFF     =      0 
    LVFBSDOFF    =      0 
    WVFBSDOFF    =      0 
    PVFBSDOFF    =      0 
    LINTNOI      =      0 
    VTSS         =     10 
    VTSD         =     10 
    VTSSWS       =     10 
    VTSSWD       =     10 
    VTSSWGS      = 0.9376 
    VTSSWGD      = 0.9376 
    TTDIOMOD     =      1 
     *** UCB's BSIM4.5.0 new model is activated. ***
    UD         =      0 
    UD1        =      0 
    UP         =  -0.45 
    LP         =  6e-08 
    TVOFF      = 0.01744 
    TVFBSDOFF  =      0 
    RBPS0      =     50 
    RBPSL      =      0 
    RBPSW      =      0 
    RBPSNF     =      0 
    RBPD0      =     50 
    RBPDL      =      0 
    RBPDW      =      0 
    RBPDNF     =      0 
    RBPBX0     =    100 
    RBPBXL     =      0 
    RBPBXW     =      0 
    RBPBXNF    =      0 
    RBPBY0     =    100 
    RBPBYL     =      0 
    RBPBYW     =      0 
    RBPBYNF    =      0 
    RBSBX0     =    100 
    RBSBY0     =    100 
    RBDBX0     =    100 
    RBDBY0     =    100 
    RBSDBXL    =      0 
    RBSDBXW    =      0 
    RBSDBXNF   =      0 
    RBSDBYL    =      0 
    RBSDBYW    =      0 
    RBSDBYNF   =      0 
    LUD        =      0 
    LUD1       =      0 
    LUP        =      0 
    LLP        =      0 
    LTVOFF     =      0 
    LTVFBSDOFF =      0 
    WUD        =      0 
    WUD1       =      0 
    WUP        =      0 
    WLP        =      0 
    WTVOFF     =      0 
    WTVFBSDOFF =      0 
    PUD        =      0 
    PUD1       =      0 
    PUP        =      0 
    PLP        =      0 
    PTVOFF     =      0 
    PTVFBSDOFF =      0 
    WEB        = 6.7e+05 
    WEC        = -7e+05 
    KVTH0WE    = -1e-06 
    K2WE       =      0 
    KU0WE      =      0 
    SCREF      = 2.5e-06 
    WPEMOD     =      1 
    LKVTH0WE   =      0 
    LK2WE      =      0 
    LKU0WE     =      0 
    WKVTH0WE   =      0 
    WK2WE      =      0 
    WKU0WE     =      0 
    PKVTH0WE   =      0 
    PK2WE      =      0 
    PKU0WE     =      0 
 Model file: /afs/asu.edu/users/a/l/r/alrosen2/425_lab/iPDK/hspice/saed32nm.lib
 Model line:         2403
 Model Name: p105  
 BSIM4 Model (Level 54)
    MOBMOD = 0
    BINUNIT = 1
    PARAMCHK = 0
    CAPMOD = 2
    DIOMOD = 1
    RDSMOD = 0
    TRNQSMOD = 0
    ACNQSMOD = 0
    RBODYMOD = 0
    RGATEMOD = 0
    PERMOD = 1
    GEOMOD = 0
    RGEOMOD = 0
    FNOIMOD = 1
    TNOIMOD = 0
    IGCMOD = 1
    IGBMOD = 1
    STIMOD = 1
    VBFWDMOD = 0
    VERSION =    4.5 
    TOXREF = 2.62e-09 
    TOXE = 2.62e-09 
    TOXP = 2.295e-09 
    TOXM = 2.62e-09 
    DTOX =      0 
    EPSROX =    3.9 
    CDSC = 0.1605 
    CDSCB =   0.03 
    CDSCD =      0 
    CIT =      0 
    NFACTOR =      1 
    XJ =  1e-07 
    VSAT = 7.58e+04 
    A0 =  4.509 
    AGS = 0.8198 
    A1 =      0 
    A2 =      1 
    AT =      0 
    KETA = 0.05365 
    NSUB =  6e+16 
    NDEP =  1e+17 
    NSD =  1e+20 
    NGATE = 2.452e+20 
    GAMMA1 =      0 
    GAMMA2 =      0 
    VBX =      0 
    VBM =     -3 
    XT = 1.55e-07 
    K1 = 0.4225 
    KT1 = -0.1673 
    KT1L = -5.206e-09 
    KT2 = -0.0214 
    K2 = -0.0358 
    K3 =  -0.15 
    K3B = 0.0348 
    LPE0 =  5e-08 
    LPEB = 3.777e-09 
    DVTP0 =  8e-07 
    DVTP1 =      0 
    W0 =      0 
    DVT0 =   15.2 
    DVT1 =   1.38 
    DVT2 = 0.0676 
    DVT0W = -0.001592 
    DVT1W =  1e+06 
    DVT2W =   0.25 
    DROUT =   0.56 
    DSUB = 0.3276 
    VTH0 = -0.2565 
    EU =      1 
    UA = 1.203e-15 
    UA1 = -0.0008414 
    UB = 1.67e-19 
    UB1 = 0.002181 
    UC = 2.853e-15 
    UC1 = -0.01207 
    U0 =  60.95 
    UTE = -0.9859 
    VOFF = -0.02239 
    VOFFL = -2.144e-09 
    MINV =  0.736 
    FPROUT =  300.8 
    PDITS =  0.676 
    PDITSD = 0.6156 
    PDITSL = 1.543e+06 
    DELTA =   0.01 
    RDSW =  390.9 
    RDSWMIN =      0 
    RDWMIN =      0 
    RSWMIN =      0 
    RDW =    100 
    RSW =    100 
    PRWG =      0 
    PRWB =      0 
    PRT = 0.0017 
    ETA0 =  0.155 
    ETAB = -0.0843 
    PCLM = 0.1352 
    PDIBLC1 =  1e-07 
    PDIBLC2 =  1e-05 
    PDIBLCB =      0 
    PSCBE1 =  5e+09 
    PSCBE2 =  5e-06 
    PVAG =      2 
    WR =      1 
    DWG =      0 
    DWB =      0 
    XW =      0 
    XWREF =      0 
    XL =  2e-09 
    XLREF =  2e-09 
    B0 =  2e-08 
    B1 =      0 
    ALPHA0 = 8.656e-12 
    ALPHA1 =      0 
    AGIDL = 4.612e-11 
    BGIDL = 6.495e+08 
    CGIDL =  21.15 
    PHIN =   -0.1 
    EGIDL = 0.2457 
    AIGC = 0.00766 
    BIGC = 0.0013 
    CIGC =   0.05 
    AIGSD = 0.00465 
    BIGSD = 0.0003 
    CIGSD = 0.008847 
    AIGBACC = 0.01242 
    BIGBACC = 0.002439 
    CIGBACC = -1.5e-10 
    AIGBINV = 0.01311 
    BIGBINV = 0.002519 
    CIGBINV = 0.0005126 
    NIGC =      3 
    NIGBINV =      1 
    NIGBACC =  8.977 
    NTOX =      1 
    EIGBINV = 1.726e-06 
    PIGCD =      1 
    POXEDGE =  1.404 
    XRCRG1 =     12 
    TNOIA =    1.5 
    TNOIB =    3.5 
    NTNOI =      1 
    XRCRG2 =      1 
    BETA0 =      6 
    IJTHDFWD =    0.1 
    IJTHSFWD =    0.1 
    IJTHDREV =    0.1 
    IJTHSREV =    0.1 
    XJBVD =      1 
    XJBVS =      1 
    BVD =     12 
    BVS =     12 
    VFB =     -1 
    GBMIN =  1e-12 
    RBDB =     50 
    RBPB =     50 
    RBSB =     50 
    RBPS =     50 
    RBPD =     50 
    CGSL = 6.5e-11 
    CGDL = 6.5e-11 
    CKAPPAS =   0.66 
    CKAPPAD =   0.66 
    CF =      0 
    CLC =      0 
    CLE =    0.6 
    DWC =      0 
    DLC = 7.256e-09 
    DLCIG = 5.462e-09 
    DWJ =      0 
    VFBCV =     -1 
    ACDE =  0.518 
    MOIN =     15 
    NOFF =  1.801 
    VOFFCV = 0.08105 
    DMCG =  7e-08 
    DMCI = 3.5e-08 
    DMDG =  6e-08 
    DMCGT =      0 
    XGW =  4e-08 
    XGL = -2e-09 
    RSHG =     11 
    NGCON =      1 
    TCJ = 0.001028 
    TPB = 0.001529 
    TCJSW = 0.001049 
    TPBSW = 0.0004987 
    TCJSWG = 0.0006756 
    TPBSWG = 0.0003417 
    SK0 =      0 
    SK1 =      0 
    SK2 =      0 
    SL =  2e-06 
    SW =  2e-06 
    K =      0 
    LNFACTOR = -0.007 
    LA0 =   0.22 
    LAGS = 0.3509 
    LNDEP = 7.826e+16 
    LUTE = 0.01626 
    LMINV = 0.03843 
    LETAB = 0.002324 
    LAIGC = -2e-05 
    LNOFF = 0.05048 
    LVOFFCV = -0.001943 
    WU0 =  2.292 
    PVSAT =    130 
    PETA0 = -0.0002 
    TNOM =  298.1 
    CGSO = 1.48e-10 
    CGDO = 1.48e-10 
    CGBO =      0 
    XPART =      0 
    RSH =      9 
    JSS = 8.942e-07 
    JSWS = 1.348e-13 
    JSWGS = 1.339e-13 
    PBS = 0.7283 
    MJS = 0.3521 
    PBSWS =   0.94 
    MJSWS = 0.1185 
    CJS = 0.001346 
    CJSWS = 6.5e-11 
    NJS =  1.098 
    PBSWGS = 0.7408 
    MJSWGS = 0.5345 
    CJSWGS = 2.99e-10 
    XTIS =      3 
    JSD = 8.942e-07 
    JSWD = 1.348e-13 
    JSWGD = 1.339e-13 
    PBD = 0.7283 
    MJD = 0.3521 
    PBSWD =   0.94 
    MJSWD = 0.1185 
    CJD = 0.001346 
    CJSWD = 6.5e-11 
    NJD =  1.098 
    PBSWGD = 0.7408 
    MJSWGD = 0.5345 
    CJSWGD = 2.99e-10 
    XTID =      3 
    LMLT =      1 
    WMLT =      1 
    LINT =      0 
    LL =      0 
    LLC =      0 
    LLN =      1 
    LW =      0 
    LWC =      0 
    LWN =      1 
    LWL =      0 
    LWLC =      0 
    LMIN =      0 
    LMAX =      1 
    WINT =      0 
    WL =      0 
    WLC =      0 
    WLN =      1 
    WW =      0 
    WWC =      0 
    WWN =      1 
    WWL =      0 
    WWLC =      0 
    WMIN =      0 
    WMAX =      1 
    NOIA = 8.203e+41 
    NOIB = 1.947e+22 
    NOIC = 3.282e+09 
    EM = 4.1e+07 
    EF =   1.04 
    AF =      1 
    KF =      0 
    TRS =      0 
    TRD =      0 
    TEMPMOD  =      1 
    LAMBDA   =      0 
    VTL      =  2e+05 m/s
    LC       =  5e-09 
    XN       =      3 
    LLAMBDA  =      0 
    LVTL     =      0 
    LXN      =      0 
    WLAMBDA  =      0 
    WVTL     =      0 
    WXN      =      0 
    PLAMBDA  =      0 
    PVTL     =      0 
    PXN      =      0 
    RNOIA    =  0.577 
    RNOIB    = 0.5164 
    SAREF(SA0) = 4.48e-07 m
    SBREF(SB0) = 4.48e-07 m
    WLOD     =      0 m
    KU0      = -2.75e-09 1/m
    KVSAT    =      0 
    KVTH0    = -1.115e-09 m
    TKU0     =      0 
    LLODKU0  =      0 
    WLODKU0  =      0 
    LLODVTH  =      0 
    WLODVTH  =      0 
    LKU0     =      0 
    WKU0     =      0 
    PKU0     =      0 
    LKVTH0   =      0 
    WKVTH0   =      0 
    PKVTH0   =      0 
    STK2     =      0 
    LODK2    =      1 
    STETA0   =      0 
    LODETA0  =      1 
    LXRCRG1  =      0 
    WXRCRG1  =      0 
    PXRCRG1  =      0 
    LXRCRG2  =      0 
    WXRCRG2  =      0 
    PXRCRG2  =      0 
     *** UCB's BSIM4.4.0 new diode model is activated. ***
    *** UCB's Diode Model Parameters ***
    JTSS         =  0.002 
    JTSSWS       =      0 
    JTSSWGS      = 3.8e-11 
    JTSD         =  0.002 
    JTSSWD       =      0 
    JTSSWGD      = 3.8e-11 
    NJTS         =     20 
    NJTSSW       =     20 
    NJTSSWG      =  1.695 
    XTSS         =   0.02 
    XTSSWS       =   0.02 
    XTSSWGS      = 0.08619 
    XTSD         =   0.02 
    XTSSWD       =   0.02 
    XTSSWGD      = 0.08619 
    TNJTS        =      0 
    TNJTSSW      =      0 
    TNJTSSWG     =   0.32 
    VFBSDOFF     =      0 
    LVFBSDOFF    =      0 
    WVFBSDOFF    =      0 
    PVFBSDOFF    =      0 
    LINTNOI      =      0 
    VTSS         =     10 
    VTSD         =     10 
    VTSSWS       =     10 
    VTSSWD       =     10 
    VTSSWGS      = 0.9376 
    VTSSWGD      = 0.9376 
    TTDIOMOD     =      1 
     *** UCB's BSIM4.5.0 new model is activated. ***
    UD         =      0 
    UD1        =      0 
    UP         =  -0.45 
    LP         =  6e-08 
    TVOFF      = 0.01744 
    TVFBSDOFF  =      0 
    RBPS0      =     50 
    RBPSL      =      0 
    RBPSW      =      0 
    RBPSNF     =      0 
    RBPD0      =     50 
    RBPDL      =      0 
    RBPDW      =      0 
    RBPDNF     =      0 
    RBPBX0     =    100 
    RBPBXL     =      0 
    RBPBXW     =      0 
    RBPBXNF    =      0 
    RBPBY0     =    100 
    RBPBYL     =      0 
    RBPBYW     =      0 
    RBPBYNF    =      0 
    RBSBX0     =    100 
    RBSBY0     =    100 
    RBDBX0     =    100 
    RBDBY0     =    100 
    RBSDBXL    =      0 
    RBSDBXW    =      0 
    RBSDBXNF   =      0 
    RBSDBYL    =      0 
    RBSDBYW    =      0 
    RBSDBYNF   =      0 
    LUD        =      0 
    LUD1       =      0 
    LUP        =      0 
    LLP        =      0 
    LTVOFF     =      0 
    LTVFBSDOFF =      0 
    WUD        =      0 
    WUD1       =      0 
    WUP        =      0 
    WLP        =      0 
    WTVOFF     =      0 
    WTVFBSDOFF =      0 
    PUD        =      0 
    PUD1       =      0 
    PUP        =      0 
    PLP        =      0 
    PTVOFF     =      0 
    PTVFBSDOFF =      0 
    WEB        = 6.7e+05 
    WEC        = -7e+05 
    KVTH0WE    = -1e-06 
    K2WE       =      0 
    KU0WE      =      0 
    SCREF      = 2.5e-06 
    WPEMOD     =      1 
    LKVTH0WE   =      0 
    LK2WE      =      0 
    LKU0WE     =      0 
    WKVTH0WE   =      0 
    WK2WE      =      0 
    WKU0WE     =      0 
    PKVTH0WE   =      0 
    PK2WE      =      0 
    PKU0WE     =      0 
 Model file: /afs/asu.edu/users/a/l/r/alrosen2/425_lab/iPDK/hspice/saed32nm.lib
 Model line:         2403
 Model Name: p105  
 BSIM4 Model (Level 54)
    MOBMOD = 0
    BINUNIT = 1
    PARAMCHK = 0
    CAPMOD = 2
    DIOMOD = 1
    RDSMOD = 0
    TRNQSMOD = 0
    ACNQSMOD = 0
    RBODYMOD = 0
    RGATEMOD = 0
    PERMOD = 1
    GEOMOD = 0
    RGEOMOD = 0
    FNOIMOD = 1
    TNOIMOD = 0
    IGCMOD = 1
    IGBMOD = 1
    STIMOD = 1
    VBFWDMOD = 0
    VERSION =    4.5 
    TOXREF = 2.62e-09 
    TOXE = 2.62e-09 
    TOXP = 2.295e-09 
    TOXM = 2.62e-09 
    DTOX =      0 
    EPSROX =    3.9 
    CDSC = 0.1605 
    CDSCB =   0.03 
    CDSCD =      0 
    CIT =      0 
    NFACTOR =      1 
    XJ =  1e-07 
    VSAT = 7.58e+04 
    A0 =  4.509 
    AGS = 0.8198 
    A1 =      0 
    A2 =      1 
    AT =      0 
    KETA = 0.05365 
    NSUB =  6e+16 
    NDEP =  1e+17 
    NSD =  1e+20 
    NGATE = 2.452e+20 
    GAMMA1 =      0 
    GAMMA2 =      0 
    VBX =      0 
    VBM =     -3 
    XT = 1.55e-07 
    K1 = 0.4225 
    KT1 = -0.1673 
    KT1L = -5.206e-09 
    KT2 = -0.0214 
    K2 = -0.0358 
    K3 =  -0.15 
    K3B = 0.0348 
    LPE0 =  5e-08 
    LPEB = 3.777e-09 
    DVTP0 =  8e-07 
    DVTP1 =      0 
    W0 =      0 
    DVT0 =   15.2 
    DVT1 =   1.38 
    DVT2 = 0.0676 
    DVT0W = -0.001592 
    DVT1W =  1e+06 
    DVT2W =   0.25 
    DROUT =   0.56 
    DSUB = 0.3276 
    VTH0 = -0.2565 
    EU =      1 
    UA = 1.203e-15 
    UA1 = -0.0008414 
    UB = 1.67e-19 
    UB1 = 0.002181 
    UC = 2.853e-15 
    UC1 = -0.01207 
    U0 =  60.95 
    UTE = -0.9859 
    VOFF = -0.02239 
    VOFFL = -2.144e-09 
    MINV =  0.736 
    FPROUT =  300.8 
    PDITS =  0.676 
    PDITSD = 0.6156 
    PDITSL = 1.543e+06 
    DELTA =   0.01 
    RDSW =  390.9 
    RDSWMIN =      0 
    RDWMIN =      0 
    RSWMIN =      0 
    RDW =    100 
    RSW =    100 
    PRWG =      0 
    PRWB =      0 
    PRT = 0.0017 
    ETA0 =  0.155 
    ETAB = -0.0843 
    PCLM = 0.1352 
    PDIBLC1 =  1e-07 
    PDIBLC2 =  1e-05 
    PDIBLCB =      0 
    PSCBE1 =  5e+09 
    PSCBE2 =  5e-06 
    PVAG =      2 
    WR =      1 
    DWG =      0 
    DWB =      0 
    XW =      0 
    XWREF =      0 
    XL =  2e-09 
    XLREF =  2e-09 
    B0 =  2e-08 
    B1 =      0 
    ALPHA0 = 8.656e-12 
    ALPHA1 =      0 
    AGIDL = 4.612e-11 
    BGIDL = 6.495e+08 
    CGIDL =  21.15 
    PHIN =   -0.1 
    EGIDL = 0.2457 
    AIGC = 0.00766 
    BIGC = 0.0013 
    CIGC =   0.05 
    AIGSD = 0.00465 
    BIGSD = 0.0003 
    CIGSD = 0.008847 
    AIGBACC = 0.01242 
    BIGBACC = 0.002439 
    CIGBACC = -1.5e-10 
    AIGBINV = 0.01311 
    BIGBINV = 0.002519 
    CIGBINV = 0.0005126 
    NIGC =      3 
    NIGBINV =      1 
    NIGBACC =  8.977 
    NTOX =      1 
    EIGBINV = 1.726e-06 
    PIGCD =      1 
    POXEDGE =  1.404 
    XRCRG1 =     12 
    TNOIA =    1.5 
    TNOIB =    3.5 
    NTNOI =      1 
    XRCRG2 =      1 
    BETA0 =      6 
    IJTHDFWD =    0.1 
    IJTHSFWD =    0.1 
    IJTHDREV =    0.1 
    IJTHSREV =    0.1 
    XJBVD =      1 
    XJBVS =      1 
    BVD =     12 
    BVS =     12 
    VFB =     -1 
    GBMIN =  1e-12 
    RBDB =     50 
    RBPB =     50 
    RBSB =     50 
    RBPS =     50 
    RBPD =     50 
    CGSL = 6.5e-11 
    CGDL = 6.5e-11 
    CKAPPAS =   0.66 
    CKAPPAD =   0.66 
    CF =      0 
    CLC =      0 
    CLE =    0.6 
    DWC =      0 
    DLC = 7.256e-09 
    DLCIG = 5.462e-09 
    DWJ =      0 
    VFBCV =     -1 
    ACDE =  0.518 
    MOIN =     15 
    NOFF =  1.801 
    VOFFCV = 0.08105 
    DMCG =  7e-08 
    DMCI = 3.5e-08 
    DMDG =  6e-08 
    DMCGT =      0 
    XGW =  4e-08 
    XGL = -2e-09 
    RSHG =     11 
    NGCON =      1 
    TCJ = 0.001028 
    TPB = 0.001529 
    TCJSW = 0.001049 
    TPBSW = 0.0004987 
    TCJSWG = 0.0006756 
    TPBSWG = 0.0003417 
    SK0 =      0 
    SK1 =      0 
    SK2 =      0 
    SL =  2e-06 
    SW =  2e-06 
    K =      0 
    LNFACTOR = -0.007 
    LA0 =   0.22 
    LAGS = 0.3509 
    LNDEP = 7.826e+16 
    LUTE = 0.01626 
    LMINV = 0.03843 
    LETAB = 0.002324 
    LAIGC = -2e-05 
    LNOFF = 0.05048 
    LVOFFCV = -0.001943 
    WU0 =  2.292 
    PVSAT =    130 
    PETA0 = -0.0002 
    TNOM =  298.1 
    CGSO = 1.48e-10 
    CGDO = 1.48e-10 
    CGBO =      0 
    XPART =      0 
    RSH =      9 
    JSS = 8.942e-07 
    JSWS = 1.348e-13 
    JSWGS = 1.339e-13 
    PBS = 0.7283 
    MJS = 0.3521 
    PBSWS =   0.94 
    MJSWS = 0.1185 
    CJS = 0.001346 
    CJSWS = 6.5e-11 
    NJS =  1.098 
    PBSWGS = 0.7408 
    MJSWGS = 0.5345 
    CJSWGS = 2.99e-10 
    XTIS =      3 
    JSD = 8.942e-07 
    JSWD = 1.348e-13 
    JSWGD = 1.339e-13 
    PBD = 0.7283 
    MJD = 0.3521 
    PBSWD =   0.94 
    MJSWD = 0.1185 
    CJD = 0.001346 
    CJSWD = 6.5e-11 
    NJD =  1.098 
    PBSWGD = 0.7408 
    MJSWGD = 0.5345 
    CJSWGD = 2.99e-10 
    XTID =      3 
    LMLT =      1 
    WMLT =      1 
    LINT =      0 
    LL =      0 
    LLC =      0 
    LLN =      1 
    LW =      0 
    LWC =      0 
    LWN =      1 
    LWL =      0 
    LWLC =      0 
    LMIN =      0 
    LMAX =      1 
    WINT =      0 
    WL =      0 
    WLC =      0 
    WLN =      1 
    WW =      0 
    WWC =      0 
    WWN =      1 
    WWL =      0 
    WWLC =      0 
    WMIN =      0 
    WMAX =      1 
    NOIA = 8.203e+41 
    NOIB = 1.947e+22 
    NOIC = 3.282e+09 
    EM = 4.1e+07 
    EF =   1.04 
    AF =      1 
    KF =      0 
    TRS =      0 
    TRD =      0 
    TEMPMOD  =      1 
    LAMBDA   =      0 
    VTL      =  2e+05 m/s
    LC       =  5e-09 
    XN       =      3 
    LLAMBDA  =      0 
    LVTL     =      0 
    LXN      =      0 
    WLAMBDA  =      0 
    WVTL     =      0 
    WXN      =      0 
    PLAMBDA  =      0 
    PVTL     =      0 
    PXN      =      0 
    RNOIA    =  0.577 
    RNOIB    = 0.5164 
    SAREF(SA0) = 4.48e-07 m
    SBREF(SB0) = 4.48e-07 m
    WLOD     =      0 m
    KU0      = -2.75e-09 1/m
    KVSAT    =      0 
    KVTH0    = -1.115e-09 m
    TKU0     =      0 
    LLODKU0  =      0 
    WLODKU0  =      0 
    LLODVTH  =      0 
    WLODVTH  =      0 
    LKU0     =      0 
    WKU0     =      0 
    PKU0     =      0 
    LKVTH0   =      0 
    WKVTH0   =      0 
    PKVTH0   =      0 
    STK2     =      0 
    LODK2    =      1 
    STETA0   =      0 
    LODETA0  =      1 
    LXRCRG1  =      0 
    WXRCRG1  =      0 
    PXRCRG1  =      0 
    LXRCRG2  =      0 
    WXRCRG2  =      0 
    PXRCRG2  =      0 
     *** UCB's BSIM4.4.0 new diode model is activated. ***
    *** UCB's Diode Model Parameters ***
    JTSS         =  0.002 
    JTSSWS       =      0 
    JTSSWGS      = 3.8e-11 
    JTSD         =  0.002 
    JTSSWD       =      0 
    JTSSWGD      = 3.8e-11 
    NJTS         =     20 
    NJTSSW       =     20 
    NJTSSWG      =  1.695 
    XTSS         =   0.02 
    XTSSWS       =   0.02 
    XTSSWGS      = 0.08619 
    XTSD         =   0.02 
    XTSSWD       =   0.02 
    XTSSWGD      = 0.08619 
    TNJTS        =      0 
    TNJTSSW      =      0 
    TNJTSSWG     =   0.32 
    VFBSDOFF     =      0 
    LVFBSDOFF    =      0 
    WVFBSDOFF    =      0 
    PVFBSDOFF    =      0 
    LINTNOI      =      0 
    VTSS         =     10 
    VTSD         =     10 
    VTSSWS       =     10 
    VTSSWD       =     10 
    VTSSWGS      = 0.9376 
    VTSSWGD      = 0.9376 
    TTDIOMOD     =      1 
     *** UCB's BSIM4.5.0 new model is activated. ***
    UD         =      0 
    UD1        =      0 
    UP         =  -0.45 
    LP         =  6e-08 
    TVOFF      = 0.01744 
    TVFBSDOFF  =      0 
    RBPS0      =     50 
    RBPSL      =      0 
    RBPSW      =      0 
    RBPSNF     =      0 
    RBPD0      =     50 
    RBPDL      =      0 
    RBPDW      =      0 
    RBPDNF     =      0 
    RBPBX0     =    100 
    RBPBXL     =      0 
    RBPBXW     =      0 
    RBPBXNF    =      0 
    RBPBY0     =    100 
    RBPBYL     =      0 
    RBPBYW     =      0 
    RBPBYNF    =      0 
    RBSBX0     =    100 
    RBSBY0     =    100 
    RBDBX0     =    100 
    RBDBY0     =    100 
    RBSDBXL    =      0 
    RBSDBXW    =      0 
    RBSDBXNF   =      0 
    RBSDBYL    =      0 
    RBSDBYW    =      0 
    RBSDBYNF   =      0 
    LUD        =      0 
    LUD1       =      0 
    LUP        =      0 
    LLP        =      0 
    LTVOFF     =      0 
    LTVFBSDOFF =      0 
    WUD        =      0 
    WUD1       =      0 
    WUP        =      0 
    WLP        =      0 
    WTVOFF     =      0 
    WTVFBSDOFF =      0 
    PUD        =      0 
    PUD1       =      0 
    PUP        =      0 
    PLP        =      0 
    PTVOFF     =      0 
    PTVFBSDOFF =      0 
    WEB        = 6.7e+05 
    WEC        = -7e+05 
    KVTH0WE    = -1e-06 
    K2WE       =      0 
    KU0WE      =      0 
    SCREF      = 2.5e-06 
    WPEMOD     =      1 
    LKVTH0WE   =      0 
    LK2WE      =      0 
    LKU0WE     =      0 
    WKVTH0WE   =      0 
    WK2WE      =      0 
    WKU0WE     =      0 
    PKVTH0WE   =      0 
    PK2WE      =      0 
    PKU0WE     =      0 
 Model file: /afs/asu.edu/users/a/l/r/alrosen2/425_lab/iPDK/hspice/saed32nm.lib
 Model line:         2403
 Model Name: p105  
 BSIM4 Model (Level 54)
    MOBMOD = 0
    BINUNIT = 1
    PARAMCHK = 0
    CAPMOD = 2
    DIOMOD = 1
    RDSMOD = 0
    TRNQSMOD = 0
    ACNQSMOD = 0
    RBODYMOD = 0
    RGATEMOD = 0
    PERMOD = 1
    GEOMOD = 0
    RGEOMOD = 0
    FNOIMOD = 1
    TNOIMOD = 0
    IGCMOD = 1
    IGBMOD = 1
    STIMOD = 1
    VBFWDMOD = 0
    VERSION =    4.5 
    TOXREF = 2.62e-09 
    TOXE = 2.62e-09 
    TOXP = 2.295e-09 
    TOXM = 2.62e-09 
    DTOX =      0 
    EPSROX =    3.9 
    CDSC = 0.1605 
    CDSCB =   0.03 
    CDSCD =      0 
    CIT =      0 
    NFACTOR =      1 
    XJ =  1e-07 
    VSAT = 7.58e+04 
    A0 =  4.509 
    AGS = 0.8198 
    A1 =      0 
    A2 =      1 
    AT =      0 
    KETA = 0.05365 
    NSUB =  6e+16 
    NDEP =  1e+17 
    NSD =  1e+20 
    NGATE = 2.452e+20 
    GAMMA1 =      0 
    GAMMA2 =      0 
    VBX =      0 
    VBM =     -3 
    XT = 1.55e-07 
    K1 = 0.4225 
    KT1 = -0.1673 
    KT1L = -5.206e-09 
    KT2 = -0.0214 
    K2 = -0.0358 
    K3 =  -0.15 
    K3B = 0.0348 
    LPE0 =  5e-08 
    LPEB = 3.777e-09 
    DVTP0 =  8e-07 
    DVTP1 =      0 
    W0 =      0 
    DVT0 =   15.2 
    DVT1 =   1.38 
    DVT2 = 0.0676 
    DVT0W = -0.001592 
    DVT1W =  1e+06 
    DVT2W =   0.25 
    DROUT =   0.56 
    DSUB = 0.3276 
    VTH0 = -0.2565 
    EU =      1 
    UA = 1.203e-15 
    UA1 = -0.0008414 
    UB = 1.67e-19 
    UB1 = 0.002181 
    UC = 2.853e-15 
    UC1 = -0.01207 
    U0 =  60.95 
    UTE = -0.9859 
    VOFF = -0.02239 
    VOFFL = -2.144e-09 
    MINV =  0.736 
    FPROUT =  300.8 
    PDITS =  0.676 
    PDITSD = 0.6156 
    PDITSL = 1.543e+06 
    DELTA =   0.01 
    RDSW =  390.9 
    RDSWMIN =      0 
    RDWMIN =      0 
    RSWMIN =      0 
    RDW =    100 
    RSW =    100 
    PRWG =      0 
    PRWB =      0 
    PRT = 0.0017 
    ETA0 =  0.155 
    ETAB = -0.0843 
    PCLM = 0.1352 
    PDIBLC1 =  1e-07 
    PDIBLC2 =  1e-05 
    PDIBLCB =      0 
    PSCBE1 =  5e+09 
    PSCBE2 =  5e-06 
    PVAG =      2 
    WR =      1 
    DWG =      0 
    DWB =      0 
    XW =      0 
    XWREF =      0 
    XL =  2e-09 
    XLREF =  2e-09 
    B0 =  2e-08 
    B1 =      0 
    ALPHA0 = 8.656e-12 
    ALPHA1 =      0 
    AGIDL = 4.612e-11 
    BGIDL = 6.495e+08 
    CGIDL =  21.15 
    PHIN =   -0.1 
    EGIDL = 0.2457 
    AIGC = 0.00766 
    BIGC = 0.0013 
    CIGC =   0.05 
    AIGSD = 0.00465 
    BIGSD = 0.0003 
    CIGSD = 0.008847 
    AIGBACC = 0.01242 
    BIGBACC = 0.002439 
    CIGBACC = -1.5e-10 
    AIGBINV = 0.01311 
    BIGBINV = 0.002519 
    CIGBINV = 0.0005126 
    NIGC =      3 
    NIGBINV =      1 
    NIGBACC =  8.977 
    NTOX =      1 
    EIGBINV = 1.726e-06 
    PIGCD =      1 
    POXEDGE =  1.404 
    XRCRG1 =     12 
    TNOIA =    1.5 
    TNOIB =    3.5 
    NTNOI =      1 
    XRCRG2 =      1 
    BETA0 =      6 
    IJTHDFWD =    0.1 
    IJTHSFWD =    0.1 
    IJTHDREV =    0.1 
    IJTHSREV =    0.1 
    XJBVD =      1 
    XJBVS =      1 
    BVD =     12 
    BVS =     12 
    VFB =     -1 
    GBMIN =  1e-12 
    RBDB =     50 
    RBPB =     50 
    RBSB =     50 
    RBPS =     50 
    RBPD =     50 
    CGSL = 6.5e-11 
    CGDL = 6.5e-11 
    CKAPPAS =   0.66 
    CKAPPAD =   0.66 
    CF =      0 
    CLC =      0 
    CLE =    0.6 
    DWC =      0 
    DLC = 7.256e-09 
    DLCIG = 5.462e-09 
    DWJ =      0 
    VFBCV =     -1 
    ACDE =  0.518 
    MOIN =     15 
    NOFF =  1.801 
    VOFFCV = 0.08105 
    DMCG =  7e-08 
    DMCI = 3.5e-08 
    DMDG =  6e-08 
    DMCGT =      0 
    XGW =  4e-08 
    XGL = -2e-09 
    RSHG =     11 
    NGCON =      1 
    TCJ = 0.001028 
    TPB = 0.001529 
    TCJSW = 0.001049 
    TPBSW = 0.0004987 
    TCJSWG = 0.0006756 
    TPBSWG = 0.0003417 
    SK0 =      0 
    SK1 =      0 
    SK2 =      0 
    SL =  2e-06 
    SW =  2e-06 
    K =      0 
    LNFACTOR = -0.007 
    LA0 =   0.22 
    LAGS = 0.3509 
    LNDEP = 7.826e+16 
    LUTE = 0.01626 
    LMINV = 0.03843 
    LETAB = 0.002324 
    LAIGC = -2e-05 
    LNOFF = 0.05048 
    LVOFFCV = -0.001943 
    WU0 =  2.292 
    PVSAT =    130 
    PETA0 = -0.0002 
    TNOM =  298.1 
    CGSO = 1.48e-10 
    CGDO = 1.48e-10 
    CGBO =      0 
    XPART =      0 
    RSH =      9 
    JSS = 8.942e-07 
    JSWS = 1.348e-13 
    JSWGS = 1.339e-13 
    PBS = 0.7283 
    MJS = 0.3521 
    PBSWS =   0.94 
    MJSWS = 0.1185 
    CJS = 0.001346 
    CJSWS = 6.5e-11 
    NJS =  1.098 
    PBSWGS = 0.7408 
    MJSWGS = 0.5345 
    CJSWGS = 2.99e-10 
    XTIS =      3 
    JSD = 8.942e-07 
    JSWD = 1.348e-13 
    JSWGD = 1.339e-13 
    PBD = 0.7283 
    MJD = 0.3521 
    PBSWD =   0.94 
    MJSWD = 0.1185 
    CJD = 0.001346 
    CJSWD = 6.5e-11 
    NJD =  1.098 
    PBSWGD = 0.7408 
    MJSWGD = 0.5345 
    CJSWGD = 2.99e-10 
    XTID =      3 
    LMLT =      1 
    WMLT =      1 
    LINT =      0 
    LL =      0 
    LLC =      0 
    LLN =      1 
    LW =      0 
    LWC =      0 
    LWN =      1 
    LWL =      0 
    LWLC =      0 
    LMIN =      0 
    LMAX =      1 
    WINT =      0 
    WL =      0 
    WLC =      0 
    WLN =      1 
    WW =      0 
    WWC =      0 
    WWN =      1 
    WWL =      0 
    WWLC =      0 
    WMIN =      0 
    WMAX =      1 
    NOIA = 8.203e+41 
    NOIB = 1.947e+22 
    NOIC = 3.282e+09 
    EM = 4.1e+07 
    EF =   1.04 
    AF =      1 
    KF =      0 
    TRS =      0 
    TRD =      0 
    TEMPMOD  =      1 
    LAMBDA   =      0 
    VTL      =  2e+05 m/s
    LC       =  5e-09 
    XN       =      3 
    LLAMBDA  =      0 
    LVTL     =      0 
    LXN      =      0 
    WLAMBDA  =      0 
    WVTL     =      0 
    WXN      =      0 
    PLAMBDA  =      0 
    PVTL     =      0 
    PXN      =      0 
    RNOIA    =  0.577 
    RNOIB    = 0.5164 
    SAREF(SA0) = 4.48e-07 m
    SBREF(SB0) = 4.48e-07 m
    WLOD     =      0 m
    KU0      = -2.75e-09 1/m
    KVSAT    =      0 
    KVTH0    = -1.115e-09 m
    TKU0     =      0 
    LLODKU0  =      0 
    WLODKU0  =      0 
    LLODVTH  =      0 
    WLODVTH  =      0 
    LKU0     =      0 
    WKU0     =      0 
    PKU0     =      0 
    LKVTH0   =      0 
    WKVTH0   =      0 
    PKVTH0   =      0 
    STK2     =      0 
    LODK2    =      1 
    STETA0   =      0 
    LODETA0  =      1 
    LXRCRG1  =      0 
    WXRCRG1  =      0 
    PXRCRG1  =      0 
    LXRCRG2  =      0 
    WXRCRG2  =      0 
    PXRCRG2  =      0 
     *** UCB's BSIM4.4.0 new diode model is activated. ***
    *** UCB's Diode Model Parameters ***
    JTSS         =  0.002 
    JTSSWS       =      0 
    JTSSWGS      = 3.8e-11 
    JTSD         =  0.002 
    JTSSWD       =      0 
    JTSSWGD      = 3.8e-11 
    NJTS         =     20 
    NJTSSW       =     20 
    NJTSSWG      =  1.695 
    XTSS         =   0.02 
    XTSSWS       =   0.02 
    XTSSWGS      = 0.08619 
    XTSD         =   0.02 
    XTSSWD       =   0.02 
    XTSSWGD      = 0.08619 
    TNJTS        =      0 
    TNJTSSW      =      0 
    TNJTSSWG     =   0.32 
    VFBSDOFF     =      0 
    LVFBSDOFF    =      0 
    WVFBSDOFF    =      0 
    PVFBSDOFF    =      0 
    LINTNOI      =      0 
    VTSS         =     10 
    VTSD         =     10 
    VTSSWS       =     10 
    VTSSWD       =     10 
    VTSSWGS      = 0.9376 
    VTSSWGD      = 0.9376 
    TTDIOMOD     =      1 
     *** UCB's BSIM4.5.0 new model is activated. ***
    UD         =      0 
    UD1        =      0 
    UP         =  -0.45 
    LP         =  6e-08 
    TVOFF      = 0.01744 
    TVFBSDOFF  =      0 
    RBPS0      =     50 
    RBPSL      =      0 
    RBPSW      =      0 
    RBPSNF     =      0 
    RBPD0      =     50 
    RBPDL      =      0 
    RBPDW      =      0 
    RBPDNF     =      0 
    RBPBX0     =    100 
    RBPBXL     =      0 
    RBPBXW     =      0 
    RBPBXNF    =      0 
    RBPBY0     =    100 
    RBPBYL     =      0 
    RBPBYW     =      0 
    RBPBYNF    =      0 
    RBSBX0     =    100 
    RBSBY0     =    100 
    RBDBX0     =    100 
    RBDBY0     =    100 
    RBSDBXL    =      0 
    RBSDBXW    =      0 
    RBSDBXNF   =      0 
    RBSDBYL    =      0 
    RBSDBYW    =      0 
    RBSDBYNF   =      0 
    LUD        =      0 
    LUD1       =      0 
    LUP        =      0 
    LLP        =      0 
    LTVOFF     =      0 
    LTVFBSDOFF =      0 
    WUD        =      0 
    WUD1       =      0 
    WUP        =      0 
    WLP        =      0 
    WTVOFF     =      0 
    WTVFBSDOFF =      0 
    PUD        =      0 
    PUD1       =      0 
    PUP        =      0 
    PLP        =      0 
    PTVOFF     =      0 
    PTVFBSDOFF =      0 
    WEB        = 6.7e+05 
    WEC        = -7e+05 
    KVTH0WE    = -1e-06 
    K2WE       =      0 
    KU0WE      =      0 
    SCREF      = 2.5e-06 
    WPEMOD     =      1 
    LKVTH0WE   =      0 
    LK2WE      =      0 
    LKU0WE     =      0 
    WKVTH0WE   =      0 
    WK2WE      =      0 
    WKU0WE     =      0 
    PKVTH0WE   =      0 
    PK2WE      =      0 
    PKU0WE     =      0 
 Model file: /afs/asu.edu/users/a/l/r/alrosen2/425_lab/iPDK/hspice/saed32nm.lib
 Model line:         2403
 Model Name: p105  
 BSIM4 Model (Level 54)
    MOBMOD = 0
    BINUNIT = 1
    PARAMCHK = 0
    CAPMOD = 2
    DIOMOD = 1
    RDSMOD = 0
    TRNQSMOD = 0
    ACNQSMOD = 0
    RBODYMOD = 0
    RGATEMOD = 0
    PERMOD = 1
    GEOMOD = 0
    RGEOMOD = 0
    FNOIMOD = 1
    TNOIMOD = 0
    IGCMOD = 1
    IGBMOD = 1
    STIMOD = 1
    VBFWDMOD = 0
    VERSION =    4.5 
    TOXREF = 2.62e-09 
    TOXE = 2.62e-09 
    TOXP = 2.295e-09 
    TOXM = 2.62e-09 
    DTOX =      0 
    EPSROX =    3.9 
    CDSC = 0.1605 
    CDSCB =   0.03 
    CDSCD =      0 
    CIT =      0 
    NFACTOR =      1 
    XJ =  1e-07 
    VSAT = 7.58e+04 
    A0 =  4.509 
    AGS = 0.8198 
    A1 =      0 
    A2 =      1 
    AT =      0 
    KETA = 0.05365 
    NSUB =  6e+16 
    NDEP =  1e+17 
    NSD =  1e+20 
    NGATE = 2.452e+20 
    GAMMA1 =      0 
    GAMMA2 =      0 
    VBX =      0 
    VBM =     -3 
    XT = 1.55e-07 
    K1 = 0.4225 
    KT1 = -0.1673 
    KT1L = -5.206e-09 
    KT2 = -0.0214 
    K2 = -0.0358 
    K3 =  -0.15 
    K3B = 0.0348 
    LPE0 =  5e-08 
    LPEB = 3.777e-09 
    DVTP0 =  8e-07 
    DVTP1 =      0 
    W0 =      0 
    DVT0 =   15.2 
    DVT1 =   1.38 
    DVT2 = 0.0676 
    DVT0W = -0.001592 
    DVT1W =  1e+06 
    DVT2W =   0.25 
    DROUT =   0.56 
    DSUB = 0.3276 
    VTH0 = -0.2565 
    EU =      1 
    UA = 1.203e-15 
    UA1 = -0.0008414 
    UB = 1.67e-19 
    UB1 = 0.002181 
    UC = 2.853e-15 
    UC1 = -0.01207 
    U0 =  60.95 
    UTE = -0.9859 
    VOFF = -0.02239 
    VOFFL = -2.144e-09 
    MINV =  0.736 
    FPROUT =  300.8 
    PDITS =  0.676 
    PDITSD = 0.6156 
    PDITSL = 1.543e+06 
    DELTA =   0.01 
    RDSW =  390.9 
    RDSWMIN =      0 
    RDWMIN =      0 
    RSWMIN =      0 
    RDW =    100 
    RSW =    100 
    PRWG =      0 
    PRWB =      0 
    PRT = 0.0017 
    ETA0 =  0.155 
    ETAB = -0.0843 
    PCLM = 0.1352 
    PDIBLC1 =  1e-07 
    PDIBLC2 =  1e-05 
    PDIBLCB =      0 
    PSCBE1 =  5e+09 
    PSCBE2 =  5e-06 
    PVAG =      2 
    WR =      1 
    DWG =      0 
    DWB =      0 
    XW =      0 
    XWREF =      0 
    XL =  2e-09 
    XLREF =  2e-09 
    B0 =  2e-08 
    B1 =      0 
    ALPHA0 = 8.656e-12 
    ALPHA1 =      0 
    AGIDL = 4.612e-11 
    BGIDL = 6.495e+08 
    CGIDL =  21.15 
    PHIN =   -0.1 
    EGIDL = 0.2457 
    AIGC = 0.00766 
    BIGC = 0.0013 
    CIGC =   0.05 
    AIGSD = 0.00465 
    BIGSD = 0.0003 
    CIGSD = 0.008847 
    AIGBACC = 0.01242 
    BIGBACC = 0.002439 
    CIGBACC = -1.5e-10 
    AIGBINV = 0.01311 
    BIGBINV = 0.002519 
    CIGBINV = 0.0005126 
    NIGC =      3 
    NIGBINV =      1 
    NIGBACC =  8.977 
    NTOX =      1 
    EIGBINV = 1.726e-06 
    PIGCD =      1 
    POXEDGE =  1.404 
    XRCRG1 =     12 
    TNOIA =    1.5 
    TNOIB =    3.5 
    NTNOI =      1 
    XRCRG2 =      1 
    BETA0 =      6 
    IJTHDFWD =    0.1 
    IJTHSFWD =    0.1 
    IJTHDREV =    0.1 
    IJTHSREV =    0.1 
    XJBVD =      1 
    XJBVS =      1 
    BVD =     12 
    BVS =     12 
    VFB =     -1 
    GBMIN =  1e-12 
    RBDB =     50 
    RBPB =     50 
    RBSB =     50 
    RBPS =     50 
    RBPD =     50 
    CGSL = 6.5e-11 
    CGDL = 6.5e-11 
    CKAPPAS =   0.66 
    CKAPPAD =   0.66 
    CF =      0 
    CLC =      0 
    CLE =    0.6 
    DWC =      0 
    DLC = 7.256e-09 
    DLCIG = 5.462e-09 
    DWJ =      0 
    VFBCV =     -1 
    ACDE =  0.518 
    MOIN =     15 
    NOFF =  1.801 
    VOFFCV = 0.08105 
    DMCG =  7e-08 
    DMCI = 3.5e-08 
    DMDG =  6e-08 
    DMCGT =      0 
    XGW =  4e-08 
    XGL = -2e-09 
    RSHG =     11 
    NGCON =      1 
    TCJ = 0.001028 
    TPB = 0.001529 
    TCJSW = 0.001049 
    TPBSW = 0.0004987 
    TCJSWG = 0.0006756 
    TPBSWG = 0.0003417 
    SK0 =      0 
    SK1 =      0 
    SK2 =      0 
    SL =  2e-06 
    SW =  2e-06 
    K =      0 
    LNFACTOR = -0.007 
    LA0 =   0.22 
    LAGS = 0.3509 
    LNDEP = 7.826e+16 
    LUTE = 0.01626 
    LMINV = 0.03843 
    LETAB = 0.002324 
    LAIGC = -2e-05 
    LNOFF = 0.05048 
    LVOFFCV = -0.001943 
    WU0 =  2.292 
    PVSAT =    130 
    PETA0 = -0.0002 
    TNOM =  298.1 
    CGSO = 1.48e-10 
    CGDO = 1.48e-10 
    CGBO =      0 
    XPART =      0 
    RSH =      9 
    JSS = 8.942e-07 
    JSWS = 1.348e-13 
    JSWGS = 1.339e-13 
    PBS = 0.7283 
    MJS = 0.3521 
    PBSWS =   0.94 
    MJSWS = 0.1185 
    CJS = 0.001346 
    CJSWS = 6.5e-11 
    NJS =  1.098 
    PBSWGS = 0.7408 
    MJSWGS = 0.5345 
    CJSWGS = 2.99e-10 
    XTIS =      3 
    JSD = 8.942e-07 
    JSWD = 1.348e-13 
    JSWGD = 1.339e-13 
    PBD = 0.7283 
    MJD = 0.3521 
    PBSWD =   0.94 
    MJSWD = 0.1185 
    CJD = 0.001346 
    CJSWD = 6.5e-11 
    NJD =  1.098 
    PBSWGD = 0.7408 
    MJSWGD = 0.5345 
    CJSWGD = 2.99e-10 
    XTID =      3 
    LMLT =      1 
    WMLT =      1 
    LINT =      0 
    LL =      0 
    LLC =      0 
    LLN =      1 
    LW =      0 
    LWC =      0 
    LWN =      1 
    LWL =      0 
    LWLC =      0 
    LMIN =      0 
    LMAX =      1 
    WINT =      0 
    WL =      0 
    WLC =      0 
    WLN =      1 
    WW =      0 
    WWC =      0 
    WWN =      1 
    WWL =      0 
    WWLC =      0 
    WMIN =      0 
    WMAX =      1 
    NOIA = 8.203e+41 
    NOIB = 1.947e+22 
    NOIC = 3.282e+09 
    EM = 4.1e+07 
    EF =   1.04 
    AF =      1 
    KF =      0 
    TRS =      0 
    TRD =      0 
    TEMPMOD  =      1 
    LAMBDA   =      0 
    VTL      =  2e+05 m/s
    LC       =  5e-09 
    XN       =      3 
    LLAMBDA  =      0 
    LVTL     =      0 
    LXN      =      0 
    WLAMBDA  =      0 
    WVTL     =      0 
    WXN      =      0 
    PLAMBDA  =      0 
    PVTL     =      0 
    PXN      =      0 
    RNOIA    =  0.577 
    RNOIB    = 0.5164 
    SAREF(SA0) = 4.48e-07 m
    SBREF(SB0) = 4.48e-07 m
    WLOD     =      0 m
    KU0      = -2.75e-09 1/m
    KVSAT    =      0 
    KVTH0    = -1.115e-09 m
    TKU0     =      0 
    LLODKU0  =      0 
    WLODKU0  =      0 
    LLODVTH  =      0 
    WLODVTH  =      0 
    LKU0     =      0 
    WKU0     =      0 
    PKU0     =      0 
    LKVTH0   =      0 
    WKVTH0   =      0 
    PKVTH0   =      0 
    STK2     =      0 
    LODK2    =      1 
    STETA0   =      0 
    LODETA0  =      1 
    LXRCRG1  =      0 
    WXRCRG1  =      0 
    PXRCRG1  =      0 
    LXRCRG2  =      0 
    WXRCRG2  =      0 
    PXRCRG2  =      0 
     *** UCB's BSIM4.4.0 new diode model is activated. ***
    *** UCB's Diode Model Parameters ***
    JTSS         =  0.002 
    JTSSWS       =      0 
    JTSSWGS      = 3.8e-11 
    JTSD         =  0.002 
    JTSSWD       =      0 
    JTSSWGD      = 3.8e-11 
    NJTS         =     20 
    NJTSSW       =     20 
    NJTSSWG      =  1.695 
    XTSS         =   0.02 
    XTSSWS       =   0.02 
    XTSSWGS      = 0.08619 
    XTSD         =   0.02 
    XTSSWD       =   0.02 
    XTSSWGD      = 0.08619 
    TNJTS        =      0 
    TNJTSSW      =      0 
    TNJTSSWG     =   0.32 
    VFBSDOFF     =      0 
    LVFBSDOFF    =      0 
    WVFBSDOFF    =      0 
    PVFBSDOFF    =      0 
    LINTNOI      =      0 
    VTSS         =     10 
    VTSD         =     10 
    VTSSWS       =     10 
    VTSSWD       =     10 
    VTSSWGS      = 0.9376 
    VTSSWGD      = 0.9376 
    TTDIOMOD     =      1 
     *** UCB's BSIM4.5.0 new model is activated. ***
    UD         =      0 
    UD1        =      0 
    UP         =  -0.45 
    LP         =  6e-08 
    TVOFF      = 0.01744 
    TVFBSDOFF  =      0 
    RBPS0      =     50 
    RBPSL      =      0 
    RBPSW      =      0 
    RBPSNF     =      0 
    RBPD0      =     50 
    RBPDL      =      0 
    RBPDW      =      0 
    RBPDNF     =      0 
    RBPBX0     =    100 
    RBPBXL     =      0 
    RBPBXW     =      0 
    RBPBXNF    =      0 
    RBPBY0     =    100 
    RBPBYL     =      0 
    RBPBYW     =      0 
    RBPBYNF    =      0 
    RBSBX0     =    100 
    RBSBY0     =    100 
    RBDBX0     =    100 
    RBDBY0     =    100 
    RBSDBXL    =      0 
    RBSDBXW    =      0 
    RBSDBXNF   =      0 
    RBSDBYL    =      0 
    RBSDBYW    =      0 
    RBSDBYNF   =      0 
    LUD        =      0 
    LUD1       =      0 
    LUP        =      0 
    LLP        =      0 
    LTVOFF     =      0 
    LTVFBSDOFF =      0 
    WUD        =      0 
    WUD1       =      0 
    WUP        =      0 
    WLP        =      0 
    WTVOFF     =      0 
    WTVFBSDOFF =      0 
    PUD        =      0 
    PUD1       =      0 
    PUP        =      0 
    PLP        =      0 
    PTVOFF     =      0 
    PTVFBSDOFF =      0 
    WEB        = 6.7e+05 
    WEC        = -7e+05 
    KVTH0WE    = -1e-06 
    K2WE       =      0 
    KU0WE      =      0 
    SCREF      = 2.5e-06 
    WPEMOD     =      1 
    LKVTH0WE   =      0 
    LK2WE      =      0 
    LKU0WE     =      0 
    WKVTH0WE   =      0 
    WK2WE      =      0 
    WKU0WE     =      0 
    PKVTH0WE   =      0 
    PK2WE      =      0 
    PKU0WE     =      0 
 Model file: /afs/asu.edu/users/a/l/r/alrosen2/425_lab/iPDK/hspice/saed32nm.lib
 Model line:         2265
 Model Name: n105  
 BSIM4 Model (Level 54)
    MOBMOD = 0
    BINUNIT = 1
    PARAMCHK = 0
    CAPMOD = 2
    DIOMOD = 1
    RDSMOD = 0
    TRNQSMOD = 0
    ACNQSMOD = 0
    RBODYMOD = 0
    RGATEMOD = 0
    PERMOD = 1
    GEOMOD = 0
    RGEOMOD = 0
    FNOIMOD = 1
    TNOIMOD = 0
    IGCMOD = 1
    IGBMOD = 1
    STIMOD = 1
    VBFWDMOD = 0
    VERSION =    4.5 
    TOXREF = 2.39e-09 
    TOXE = 2.39e-09 
    TOXP = 2.221e-09 
    TOXM = 2.39e-09 
    DTOX =      0 
    EPSROX =    3.9 
    CDSC =      0 
    CDSCB = -0.03563 
    CDSCD =      0 
    CIT =  0.001 
    NFACTOR =      1 
    XJ =  1e-07 
    VSAT = 2.66e+05 
    A0 =    1.4 
    AGS =   0.06 
    A1 =      0 
    A2 =    0.5 
    AT = 0.0008 
    KETA =      0 
    NSUB =  6e+16 
    NDEP = 1.5e+17 
    NSD =  1e+20 
    NGATE =  1e+23 
    GAMMA1 =      0 
    GAMMA2 =      0 
    VBX =      0 
    VBM =     -3 
    XT = 1.55e-07 
    K1 =    0.4 
    KT1 = -0.1551 
    KT1L = 7.2e-10 
    KT2 = -0.03695 
    K2 = -0.05016 
    K3 =  -3.98 
    K3B =    0.2 
    LPE0 =  2e-09 
    LPEB = 1.5e-08 
    DVTP0 = 1.3e-06 
    DVTP1 =    2.5 
    W0 = 1.658e-08 
    DVT0 =  28.16 
    DVT1 = 0.7992 
    DVT2 = 0.07028 
    DVT0W = -0.02048 
    DVT1W = 6.893e+05 
    DVT2W =  0.075 
    DROUT =  1.817 
    DSUB = 0.5135 
    VTH0 = 0.4422 
    EU =   1.67 
    UA = 4.802e-12 
    UA1 = 0.0811 
    UB = 2.661e-18 
    UB1 = -0.001228 
    UC = 1.378e-10 
    UC1 = -5.6e-11 
    U0 =   30.4 
    UTE =  -1.46 
    VOFF = -0.2037 
    VOFFL = -8.217e-10 
    MINV = -0.3614 
    FPROUT =    150 
    PDITS = 0.4942 
    PDITSD = 0.9771 
    PDITSL = 3.563e+05 
    DELTA =   0.01 
    RDSW =  340.5 
    RDSWMIN =      0 
    RDWMIN =    180 
    RSWMIN =    180 
    RDW =    100 
    RSW =    100 
    PRWG =      0 
    PRWB =      0 
    PRT = 0.005951 
    ETA0 = 0.5807 
    ETAB = -0.2873 
    PCLM =  1e-10 
    PDIBLC1 = 0.07778 
    PDIBLC2 = 0.001118 
    PDIBLCB =  -0.62 
    PSCBE1 =  5e+09 
    PSCBE2 =  5e-06 
    PVAG =      0 
    WR =      1 
    DWG =      0 
    DWB =      0 
    XW =      0 
    XWREF =      0 
    XL =  2e-09 
    XLREF =  2e-09 
    B0 =      0 
    B1 =      1 
    ALPHA0 =  4e-12 
    ALPHA1 =      0 
    AGIDL = 9.069e-10 
    BGIDL = 1.305e+09 
    CGIDL =  7.202 
    PHIN =   0.15 
    EGIDL = 0.1265 
    AIGC = 0.01132 
    BIGC = 0.001217 
    CIGC = 0.0009984 
    AIGSD = 0.008722 
    BIGSD = 0.000717 
    CIGSD = 0.007319 
    AIGBACC = 0.01301 
    BIGBACC = 0.002586 
    CIGBACC = 0.005625 
    AIGBINV = 0.01131 
    BIGBINV = 0.0012 
    CIGBINV = 0.001479 
    NIGC =      3 
    NIGBINV =      3 
    NIGBACC =  5.665 
    NTOX =      1 
    EIGBINV =    1.1 
    PIGCD =      1 
    POXEDGE =    1.3 
    XRCRG1 =     12 
    TNOIA =    1.5 
    TNOIB =    3.5 
    NTNOI =      1 
    XRCRG2 =      1 
    BETA0 =    2.8 
    IJTHDFWD =    0.1 
    IJTHSFWD =    0.1 
    IJTHDREV =    0.1 
    IJTHSREV =    0.1 
    XJBVD =      1 
    XJBVS =      1 
    BVD =     12 
    BVS =     12 
    VFB =     -1 
    GBMIN =  1e-12 
    RBDB =     50 
    RBPB =     50 
    RBSB =     50 
    RBPS =     50 
    RBPD =     50 
    CGSL = 1.444e-10 
    CGDL = 1.444e-10 
    CKAPPAS =  3.844 
    CKAPPAD =  3.844 
    CF =      0 
    CLC =      0 
    CLE =    0.6 
    DWC =      0 
    DLC = 6.9e-09 
    DLCIG =  5e-09 
    DWJ =      0 
    VFBCV =      0 
    ACDE =    0.4 
    MOIN =     15 
    NOFF =  2.077 
    VOFFCV = -0.1548 
    DMCG =  7e-08 
    DMCI = 3.5e-08 
    DMDG =  6e-08 
    DMCGT =      0 
    XGW =  4e-08 
    XGL = -2e-09 
    RSHG =     11 
    NGCON =      1 
    TCJ = 0.0006762 
    TPB = 0.001244 
    TCJSW = 0.0006257 
    TPBSW = 0.0006601 
    TCJSWG =      0 
    TPBSWG = 0.002441 
    SK0 =      0 
    SK1 =      0 
    SK2 =      0 
    SL =  2e-06 
    SW =  2e-06 
    K =      0 
    LVSAT =  -2400 
    LA0 =   -0.2 
    LAGS =  0.136 
    LNDEP = 1.972e+17 
    LK3 = -0.03844 
    LLPE0 =  3e-09 
    LDVT0 =    1.8 
    LU0 =  4.488 
    LUTE = 0.05646 
    LMINV = -0.0075 
    LETAB = 0.004725 
    LAIGC = -1e-05 
    LNOFF =   0.04 
    WVSAT =   2000 
    WDSUB =  0.008 
    WVOFF =  0.006 
    TNOM =  298.1 
    CGSO = 9.626e-11 
    CGDO = 9.626e-11 
    CGBO =  1e-12 
    XPART =      0 
    RSH =     12 
    JSS = 1.897e-07 
    JSWS = 3.693e-14 
    JSWGS = 1.15e-13 
    PBS =  0.831 
    MJS = 0.3945 
    PBSWS = 0.5281 
    MJSWS = 0.3549 
    CJS = 0.001346 
    CJSWS = 8.25e-11 
    NJS =  1.022 
    PBSWGS =  1.503 
    MJSWGS = 0.9212 
    CJSWGS = 3.04e-10 
    XTIS =      3 
    JSD = 1.897e-07 
    JSWD = 3.693e-14 
    JSWGD = 1.15e-13 
    PBD =  0.831 
    MJD = 0.3945 
    PBSWD = 0.9633 
    MJSWD = 0.3549 
    CJD = 0.001346 
    CJSWD = 8.25e-11 
    NJD =  1.022 
    PBSWGD =  1.503 
    MJSWGD = 0.9212 
    CJSWGD = 3.04e-10 
    XTID =      3 
    LMLT =      1 
    WMLT =      1 
    LINT =      0 
    LL =      0 
    LLC =      0 
    LLN =      1 
    LW =      0 
    LWC =      0 
    LWN =      1 
    LWL =      0 
    LWLC =      0 
    LMIN =      0 
    LMAX =      1 
    WINT =      0 
    WL =      0 
    WLC =      0 
    WLN =      1 
    WW =      0 
    WWC =      0 
    WWN =      1 
    WWL =      0 
    WWLC =      0 
    WMIN =      0 
    WMAX =      1 
    NOIA = 3.344e+41 
    NOIB = 2.95e+22 
    NOIC = 8.125e+07 
    EM = 4.1e+07 
    EF =   0.95 
    AF =      1 
    KF = 1.5e-27 
    TRS =      0 
    TRD =      0 
    TEMPMOD  =      1 
    LAMBDA   =      0 
    VTL      =  2e+05 m/s
    LC       =  5e-09 
    XN       =      3 
    LLAMBDA  =      0 
    LVTL     =      0 
    LXN      =      0 
    WLAMBDA  =      0 
    WVTL     =      0 
    WXN      =      0 
    PLAMBDA  =      0 
    PVTL     =      0 
    PXN      =      0 
    RNOIA    =  0.577 
    RNOIB    = 0.5164 
    SAREF(SA0) = 4.48e-07 m
    SBREF(SB0) = 4.48e-07 m
    WLOD     =      0 m
    KU0      =      0 1/m
    KVSAT    =      0 
    KVTH0    = 4.5e-10 m
    TKU0     =      0 
    LLODKU0  =      0 
    WLODKU0  =      0 
    LLODVTH  =      0 
    WLODVTH  =      0 
    LKU0     =      0 
    WKU0     =      0 
    PKU0     =      0 
    LKVTH0   =      0 
    WKVTH0   =      0 
    PKVTH0   =      0 
    STK2     =      0 
    LODK2    =      1 
    STETA0   =      0 
    LODETA0  =      1 
    LXRCRG1  =      0 
    WXRCRG1  =      0 
    PXRCRG1  =      0 
    LXRCRG2  =      0 
    WXRCRG2  =      0 
    PXRCRG2  =      0 
     *** UCB's BSIM4.4.0 new diode model is activated. ***
    *** UCB's Diode Model Parameters ***
    JTSS         =      0 
    JTSSWS       =  7e-11 
    JTSSWGS      =  1e-09 
    JTSD         =      0 
    JTSSWD       =  7e-11 
    JTSSWGD      =  1e-09 
    NJTS         =     60 
    NJTSSW       =     60 
    NJTSSWG      =    2.1 
    XTSS         =   0.02 
    XTSSWS       =   0.02 
    XTSSWGS      =   0.02 
    XTSD         =   0.02 
    XTSSWD       =   0.02 
    XTSSWGD      =   0.02 
    TNJTS        =      0 
    TNJTSSW      =      0 
    TNJTSSWG     =      0 
    VFBSDOFF     =      0 
    LVFBSDOFF    =      0 
    WVFBSDOFF    =      0 
    PVFBSDOFF    =      0 
    LINTNOI      =      0 
    VTSS         =     10 
    VTSD         =     10 
    VTSSWS       =     10 
    VTSSWD       =     10 
    VTSSWGS      =    0.9 
    VTSSWGD      =    0.9 
    TTDIOMOD     =      1 
     *** UCB's BSIM4.5.0 new model is activated. ***
    UD         =      0 
    UD1        =      0 
    UP         =   0.36 
    LP         = 3.094e-08 
    TVOFF      = 0.002063 
    TVFBSDOFF  =      0 
    RBPS0      =     50 
    RBPSL      =      0 
    RBPSW      =      0 
    RBPSNF     =      0 
    RBPD0      =     50 
    RBPDL      =      0 
    RBPDW      =      0 
    RBPDNF     =      0 
    RBPBX0     =    100 
    RBPBXL     =      0 
    RBPBXW     =      0 
    RBPBXNF    =      0 
    RBPBY0     =    100 
    RBPBYL     =      0 
    RBPBYW     =      0 
    RBPBYNF    =      0 
    RBSBX0     =    100 
    RBSBY0     =    100 
    RBDBX0     =    100 
    RBDBY0     =    100 
    RBSDBXL    =      0 
    RBSDBXW    =      0 
    RBSDBXNF   =      0 
    RBSDBYL    =      0 
    RBSDBYW    =      0 
    RBSDBYNF   =      0 
    LUD        =      0 
    LUD1       =      0 
    LUP        =      0 
    LLP        =      0 
    LTVOFF     =      0 
    LTVFBSDOFF =      0 
    WUD        =      0 
    WUD1       =      0 
    WUP        =      0 
    WLP        =      0 
    WTVOFF     =      0 
    WTVFBSDOFF =      0 
    PUD        =      0 
    PUD1       =      0 
    PUP        =      0 
    PLP        =      0 
    PTVOFF     =      0 
    PTVFBSDOFF =      0 
    WEB        = 7.5e+05 
    WEC        = -1e+05 
    KVTH0WE    = 6.295e-07 
    K2WE       =      0 
    KU0WE      =      0 
    SCREF      = 2.5e-06 
    WPEMOD     =      1 
    LKVTH0WE   =      0 
    LK2WE      =      0 
    LKU0WE     =      0 
    WKVTH0WE   =      0 
    WK2WE      =      0 
    WKU0WE     =      0 
    PKVTH0WE   =      0 
    PK2WE      =      0 
    PKU0WE     =      0 
 Model file: /afs/asu.edu/users/a/l/r/alrosen2/425_lab/iPDK/hspice/saed32nm.lib
 Model line:         2265
 Model Name: n105  
 BSIM4 Model (Level 54)
    MOBMOD = 0
    BINUNIT = 1
    PARAMCHK = 0
    CAPMOD = 2
    DIOMOD = 1
    RDSMOD = 0
    TRNQSMOD = 0
    ACNQSMOD = 0
    RBODYMOD = 0
    RGATEMOD = 0
    PERMOD = 1
    GEOMOD = 0
    RGEOMOD = 0
    FNOIMOD = 1
    TNOIMOD = 0
    IGCMOD = 1
    IGBMOD = 1
    STIMOD = 1
    VBFWDMOD = 0
    VERSION =    4.5 
    TOXREF = 2.39e-09 
    TOXE = 2.39e-09 
    TOXP = 2.221e-09 
    TOXM = 2.39e-09 
    DTOX =      0 
    EPSROX =    3.9 
    CDSC =      0 
    CDSCB = -0.03563 
    CDSCD =      0 
    CIT =  0.001 
    NFACTOR =      1 
    XJ =  1e-07 
    VSAT = 2.66e+05 
    A0 =    1.4 
    AGS =   0.06 
    A1 =      0 
    A2 =    0.5 
    AT = 0.0008 
    KETA =      0 
    NSUB =  6e+16 
    NDEP = 1.5e+17 
    NSD =  1e+20 
    NGATE =  1e+23 
    GAMMA1 =      0 
    GAMMA2 =      0 
    VBX =      0 
    VBM =     -3 
    XT = 1.55e-07 
    K1 =    0.4 
    KT1 = -0.1551 
    KT1L = 7.2e-10 
    KT2 = -0.03695 
    K2 = -0.05016 
    K3 =  -3.98 
    K3B =    0.2 
    LPE0 =  2e-09 
    LPEB = 1.5e-08 
    DVTP0 = 1.3e-06 
    DVTP1 =    2.5 
    W0 = 1.658e-08 
    DVT0 =  28.16 
    DVT1 = 0.7992 
    DVT2 = 0.07028 
    DVT0W = -0.02048 
    DVT1W = 6.893e+05 
    DVT2W =  0.075 
    DROUT =  1.817 
    DSUB = 0.5135 
    VTH0 = 0.4422 
    EU =   1.67 
    UA = 4.802e-12 
    UA1 = 0.0811 
    UB = 2.661e-18 
    UB1 = -0.001228 
    UC = 1.378e-10 
    UC1 = -5.6e-11 
    U0 =   30.4 
    UTE =  -1.46 
    VOFF = -0.2037 
    VOFFL = -8.217e-10 
    MINV = -0.3614 
    FPROUT =    150 
    PDITS = 0.4942 
    PDITSD = 0.9771 
    PDITSL = 3.563e+05 
    DELTA =   0.01 
    RDSW =  340.5 
    RDSWMIN =      0 
    RDWMIN =    180 
    RSWMIN =    180 
    RDW =    100 
    RSW =    100 
    PRWG =      0 
    PRWB =      0 
    PRT = 0.005951 
    ETA0 = 0.5807 
    ETAB = -0.2873 
    PCLM =  1e-10 
    PDIBLC1 = 0.07778 
    PDIBLC2 = 0.001118 
    PDIBLCB =  -0.62 
    PSCBE1 =  5e+09 
    PSCBE2 =  5e-06 
    PVAG =      0 
    WR =      1 
    DWG =      0 
    DWB =      0 
    XW =      0 
    XWREF =      0 
    XL =  2e-09 
    XLREF =  2e-09 
    B0 =      0 
    B1 =      1 
    ALPHA0 =  4e-12 
    ALPHA1 =      0 
    AGIDL = 9.069e-10 
    BGIDL = 1.305e+09 
    CGIDL =  7.202 
    PHIN =   0.15 
    EGIDL = 0.1265 
    AIGC = 0.01132 
    BIGC = 0.001217 
    CIGC = 0.0009984 
    AIGSD = 0.008722 
    BIGSD = 0.000717 
    CIGSD = 0.007319 
    AIGBACC = 0.01301 
    BIGBACC = 0.002586 
    CIGBACC = 0.005625 
    AIGBINV = 0.01131 
    BIGBINV = 0.0012 
    CIGBINV = 0.001479 
    NIGC =      3 
    NIGBINV =      3 
    NIGBACC =  5.665 
    NTOX =      1 
    EIGBINV =    1.1 
    PIGCD =      1 
    POXEDGE =    1.3 
    XRCRG1 =     12 
    TNOIA =    1.5 
    TNOIB =    3.5 
    NTNOI =      1 
    XRCRG2 =      1 
    BETA0 =    2.8 
    IJTHDFWD =    0.1 
    IJTHSFWD =    0.1 
    IJTHDREV =    0.1 
    IJTHSREV =    0.1 
    XJBVD =      1 
    XJBVS =      1 
    BVD =     12 
    BVS =     12 
    VFB =     -1 
    GBMIN =  1e-12 
    RBDB =     50 
    RBPB =     50 
    RBSB =     50 
    RBPS =     50 
    RBPD =     50 
    CGSL = 1.444e-10 
    CGDL = 1.444e-10 
    CKAPPAS =  3.844 
    CKAPPAD =  3.844 
    CF =      0 
    CLC =      0 
    CLE =    0.6 
    DWC =      0 
    DLC = 6.9e-09 
    DLCIG =  5e-09 
    DWJ =      0 
    VFBCV =      0 
    ACDE =    0.4 
    MOIN =     15 
    NOFF =  2.077 
    VOFFCV = -0.1548 
    DMCG =  7e-08 
    DMCI = 3.5e-08 
    DMDG =  6e-08 
    DMCGT =      0 
    XGW =  4e-08 
    XGL = -2e-09 
    RSHG =     11 
    NGCON =      1 
    TCJ = 0.0006762 
    TPB = 0.001244 
    TCJSW = 0.0006257 
    TPBSW = 0.0006601 
    TCJSWG =      0 
    TPBSWG = 0.002441 
    SK0 =      0 
    SK1 =      0 
    SK2 =      0 
    SL =  2e-06 
    SW =  2e-06 
    K =      0 
    LVSAT =  -2400 
    LA0 =   -0.2 
    LAGS =  0.136 
    LNDEP = 1.972e+17 
    LK3 = -0.03844 
    LLPE0 =  3e-09 
    LDVT0 =    1.8 
    LU0 =  4.488 
    LUTE = 0.05646 
    LMINV = -0.0075 
    LETAB = 0.004725 
    LAIGC = -1e-05 
    LNOFF =   0.04 
    WVSAT =   2000 
    WDSUB =  0.008 
    WVOFF =  0.006 
    TNOM =  298.1 
    CGSO = 9.626e-11 
    CGDO = 9.626e-11 
    CGBO =  1e-12 
    XPART =      0 
    RSH =     12 
    JSS = 1.897e-07 
    JSWS = 3.693e-14 
    JSWGS = 1.15e-13 
    PBS =  0.831 
    MJS = 0.3945 
    PBSWS = 0.5281 
    MJSWS = 0.3549 
    CJS = 0.001346 
    CJSWS = 8.25e-11 
    NJS =  1.022 
    PBSWGS =  1.503 
    MJSWGS = 0.9212 
    CJSWGS = 3.04e-10 
    XTIS =      3 
    JSD = 1.897e-07 
    JSWD = 3.693e-14 
    JSWGD = 1.15e-13 
    PBD =  0.831 
    MJD = 0.3945 
    PBSWD = 0.9633 
    MJSWD = 0.3549 
    CJD = 0.001346 
    CJSWD = 8.25e-11 
    NJD =  1.022 
    PBSWGD =  1.503 
    MJSWGD = 0.9212 
    CJSWGD = 3.04e-10 
    XTID =      3 
    LMLT =      1 
    WMLT =      1 
    LINT =      0 
    LL =      0 
    LLC =      0 
    LLN =      1 
    LW =      0 
    LWC =      0 
    LWN =      1 
    LWL =      0 
    LWLC =      0 
    LMIN =      0 
    LMAX =      1 
    WINT =      0 
    WL =      0 
    WLC =      0 
    WLN =      1 
    WW =      0 
    WWC =      0 
    WWN =      1 
    WWL =      0 
    WWLC =      0 
    WMIN =      0 
    WMAX =      1 
    NOIA = 3.344e+41 
    NOIB = 2.95e+22 
    NOIC = 8.125e+07 
    EM = 4.1e+07 
    EF =   0.95 
    AF =      1 
    KF = 1.5e-27 
    TRS =      0 
    TRD =      0 
    TEMPMOD  =      1 
    LAMBDA   =      0 
    VTL      =  2e+05 m/s
    LC       =  5e-09 
    XN       =      3 
    LLAMBDA  =      0 
    LVTL     =      0 
    LXN      =      0 
    WLAMBDA  =      0 
    WVTL     =      0 
    WXN      =      0 
    PLAMBDA  =      0 
    PVTL     =      0 
[...]
    DMCG =  7e-08 
    DMCI = 3.5e-08 
    DMDG =  6e-08 
    DMCGT =      0 
    XGW =  4e-08 
    XGL = -2e-09 
    RSHG =     11 
    NGCON =      1 
    TCJ = 0.0006762 
    TPB = 0.001244 
    TCJSW = 0.0006257 
    TPBSW = 0.0006601 
    TCJSWG =      0 
    TPBSWG = 0.002441 
    SK0 =      0 
    SK1 =      0 
    SK2 =      0 
    SL =  2e-06 
    SW =  2e-06 
    K =      0 
    LVSAT =  -2400 
    LA0 =   -0.2 
    LAGS =  0.136 
    LNDEP = 1.972e+17 
    LK3 = -0.03844 
    LLPE0 =  3e-09 
    LDVT0 =    1.8 
    LU0 =  4.488 
    LUTE = 0.05646 
    LMINV = -0.0075 
    LETAB = 0.004725 
    LAIGC = -1e-05 
    LNOFF =   0.04 
    WVSAT =   2000 
    WDSUB =  0.008 
    WVOFF =  0.006 
    TNOM =  298.1 
    CGSO = 9.626e-11 
    CGDO = 9.626e-11 
    CGBO =  1e-12 
    XPART =      0 
    RSH =     12 
    JSS = 1.897e-07 
    JSWS = 3.693e-14 
    JSWGS = 1.15e-13 
    PBS =  0.831 
    MJS = 0.3945 
    PBSWS = 0.5281 
    MJSWS = 0.3549 
    CJS = 0.001346 
    CJSWS = 8.25e-11 
    NJS =  1.022 
    PBSWGS =  1.503 
    MJSWGS = 0.9212 
    CJSWGS = 3.04e-10 
    XTIS =      3 
    JSD = 1.897e-07 
    JSWD = 3.693e-14 
    JSWGD = 1.15e-13 
    PBD =  0.831 
    MJD = 0.3945 
    PBSWD = 0.9633 
    MJSWD = 0.3549 
    CJD = 0.001346 
    CJSWD = 8.25e-11 
    NJD =  1.022 
    PBSWGD =  1.503 
    MJSWGD = 0.9212 
    CJSWGD = 3.04e-10 
    XTID =      3 
    LMLT =      1 
    WMLT =      1 
    LINT =      0 
    LL =      0 
    LLC =      0 
    LLN =      1 
    LW =      0 
    LWC =      0 
    LWN =      1 
    LWL =      0 
    LWLC =      0 
    LMIN =      0 
    LMAX =      1 
    WINT =      0 
    WL =      0 
    WLC =      0 
    WLN =      1 
    WW =      0 
    WWC =      0 
    WWN =      1 
    WWL =      0 
    WWLC =      0 
    WMIN =      0 
    WMAX =      1 
    NOIA = 3.344e+41 
    NOIB = 2.95e+22 
    NOIC = 8.125e+07 
    EM = 4.1e+07 
    EF =   0.95 
    AF =      1 
    KF = 1.5e-27 
    TRS =      0 
    TRD =      0 
    TEMPMOD  =      1 
    LAMBDA   =      0 
    VTL      =  2e+05 m/s
    LC       =  5e-09 
    XN       =      3 
    LLAMBDA  =      0 
    LVTL     =      0 
    LXN      =      0 
    WLAMBDA  =      0 
    WVTL     =      0 
    WXN      =      0 
    PLAMBDA  =      0 
    PVTL     =      0 
    PXN      =      0 
    RNOIA    =  0.577 
    RNOIB    = 0.5164 
    SAREF(SA0) = 4.48e-07 m
    SBREF(SB0) = 4.48e-07 m
    WLOD     =      0 m
    KU0      =      0 1/m
    KVSAT    =      0 
    KVTH0    = 4.5e-10 m
    TKU0     =      0 
    LLODKU0  =      0 
    WLODKU0  =      0 
    LLODVTH  =      0 
    WLODVTH  =      0 
    LKU0     =      0 
    WKU0     =      0 
    PKU0     =      0 
    LKVTH0   =      0 
    WKVTH0   =      0 
    PKVTH0   =      0 
    STK2     =      0 
    LODK2    =      1 
    STETA0   =      0 
    LODETA0  =      1 
    LXRCRG1  =      0 
    WXRCRG1  =      0 
    PXRCRG1  =      0 
    LXRCRG2  =      0 
    WXRCRG2  =      0 
    PXRCRG2  =      0 
     *** UCB's BSIM4.4.0 new diode model is activated. ***
    *** UCB's Diode Model Parameters ***
    JTSS         =      0 
    JTSSWS       =  7e-11 
    JTSSWGS      =  1e-09 
    JTSD         =      0 
    JTSSWD       =  7e-11 
    JTSSWGD      =  1e-09 
    NJTS         =     60 
    NJTSSW       =     60 
    NJTSSWG      =    2.1 
    XTSS         =   0.02 
    XTSSWS       =   0.02 
    XTSSWGS      =   0.02 
    XTSD         =   0.02 
    XTSSWD       =   0.02 
    XTSSWGD      =   0.02 
    TNJTS        =      0 
    TNJTSSW      =      0 
    TNJTSSWG     =      0 
    VFBSDOFF     =      0 
    LVFBSDOFF    =      0 
    WVFBSDOFF    =      0 
    PVFBSDOFF    =      0 
    LINTNOI      =      0 
    VTSS         =     10 
    VTSD         =     10 
    VTSSWS       =     10 
    VTSSWD       =     10 
    VTSSWGS      =    0.9 
    VTSSWGD      =    0.9 
    TTDIOMOD     =      1 
     *** UCB's BSIM4.5.0 new model is activated. ***
    UD         =      0 
    UD1        =      0 
    UP         =   0.36 
    LP         = 3.094e-08 
    TVOFF      = 0.002063 
    TVFBSDOFF  =      0 
    RBPS0      =     50 
    RBPSL      =      0 
    RBPSW      =      0 
    RBPSNF     =      0 
    RBPD0      =     50 
    RBPDL      =      0 
    RBPDW      =      0 
    RBPDNF     =      0 
    RBPBX0     =    100 
    RBPBXL     =      0 
    RBPBXW     =      0 
    RBPBXNF    =      0 
    RBPBY0     =    100 
    RBPBYL     =      0 
    RBPBYW     =      0 
    RBPBYNF    =      0 
    RBSBX0     =    100 
    RBSBY0     =    100 
    RBDBX0     =    100 
    RBDBY0     =    100 
    RBSDBXL    =      0 
    RBSDBXW    =      0 
    RBSDBXNF   =      0 
    RBSDBYL    =      0 
    RBSDBYW    =      0 
    RBSDBYNF   =      0 
    LUD        =      0 
    LUD1       =      0 
    LUP        =      0 
    LLP        =      0 
    LTVOFF     =      0 
    LTVFBSDOFF =      0 
    WUD        =      0 
    WUD1       =      0 
    WUP        =      0 
    WLP        =      0 
    WTVOFF     =      0 
    WTVFBSDOFF =      0 
    PUD        =      0 
    PUD1       =      0 
    PUP        =      0 
    PLP        =      0 
    PTVOFF     =      0 
    PTVFBSDOFF =      0 
    WEB        = 7.5e+05 
    WEC        = -1e+05 
    KVTH0WE    = 8.122e-07 
    K2WE       =      0 
    KU0WE      =      0 
    SCREF      = 2.5e-06 
    WPEMOD     =      1 
    LKVTH0WE   =      0 
    LK2WE      =      0 
    LKU0WE     =      0 
    WKVTH0WE   =      0 
    WK2WE      =      0 
    WKU0WE     =      0 
    PKVTH0WE   =      0 
    PK2WE      =      0 
    PKU0WE     =      0 
 Model file: /afs/asu.edu/users/a/l/r/alrosen2/425_lab/iPDK/hspice/saed32nm.lib
 Model line:         2265
 Model Name: n105  
 BSIM4 Model (Level 54)
    MOBMOD = 0
    BINUNIT = 1
    PARAMCHK = 0
    CAPMOD = 2
    DIOMOD = 1
    RDSMOD = 0
    TRNQSMOD = 0
    ACNQSMOD = 0
    RBODYMOD = 0
    RGATEMOD = 0
    PERMOD = 1
    GEOMOD = 0
    RGEOMOD = 0
    FNOIMOD = 1
    TNOIMOD = 0
    IGCMOD = 1
    IGBMOD = 1
    STIMOD = 1
    VBFWDMOD = 0
    VERSION =    4.5 
    TOXREF = 2.39e-09 
    TOXE = 2.39e-09 
    TOXP = 2.221e-09 
    TOXM = 2.39e-09 
    DTOX =      0 
    EPSROX =    3.9 
    CDSC =      0 
    CDSCB = -0.03563 
    CDSCD =      0 
    CIT =  0.001 
    NFACTOR =      1 
    XJ =  1e-07 
    VSAT = 2.66e+05 
    A0 =    1.4 
    AGS =   0.06 
    A1 =      0 
    A2 =    0.5 
    AT = 0.0008 
    KETA =      0 
    NSUB =  6e+16 
    NDEP = 1.5e+17 
    NSD =  1e+20 
    NGATE =  1e+23 
    GAMMA1 =      0 
    GAMMA2 =      0 
    VBX =      0 
    VBM =     -3 
    XT = 1.55e-07 
    K1 =    0.4 
    KT1 = -0.1551 
    KT1L = 7.2e-10 
    KT2 = -0.03695 
    K2 = -0.05016 
    K3 =  -3.98 
    K3B =    0.2 
    LPE0 =  2e-09 
    LPEB = 1.5e-08 
    DVTP0 = 1.3e-06 
    DVTP1 =    2.5 
    W0 = 1.658e-08 
    DVT0 =  28.16 
    DVT1 = 0.7992 
    DVT2 = 0.07028 
    DVT0W = -0.02048 
    DVT1W = 6.893e+05 
    DVT2W =  0.075 
    DROUT =  1.817 
    DSUB = 0.5135 
    VTH0 = 0.4422 
    EU =   1.67 
    UA = 4.802e-12 
    UA1 = 0.0811 
    UB = 2.661e-18 
    UB1 = -0.001228 
    UC = 1.378e-10 
    UC1 = -5.6e-11 
    U0 =   30.4 
    UTE =  -1.46 
    VOFF = -0.2037 
    VOFFL = -8.217e-10 
    MINV = -0.3614 
    FPROUT =    150 
    PDITS = 0.4942 
    PDITSD = 0.9771 
    PDITSL = 3.563e+05 
    DELTA =   0.01 
    RDSW =  340.5 
    RDSWMIN =      0 
    RDWMIN =    180 
    RSWMIN =    180 
    RDW =    100 
    RSW =    100 
    PRWG =      0 
    PRWB =      0 
    PRT = 0.005951 
    ETA0 = 0.5807 
    ETAB = -0.2873 
    PCLM =  1e-10 
    PDIBLC1 = 0.07778 
    PDIBLC2 = 0.001118 
    PDIBLCB =  -0.62 
    PSCBE1 =  5e+09 
    PSCBE2 =  5e-06 
    PVAG =      0 
    WR =      1 
    DWG =      0 
    DWB =      0 
    XW =      0 
    XWREF =      0 
    XL =  2e-09 
    XLREF =  2e-09 
    B0 =      0 
    B1 =      1 
    ALPHA0 =  4e-12 
    ALPHA1 =      0 
    AGIDL = 9.069e-10 
    BGIDL = 1.305e+09 
    CGIDL =  7.202 
    PHIN =   0.15 
    EGIDL = 0.1265 
    AIGC = 0.01132 
    BIGC = 0.001217 
    CIGC = 0.0009984 
    AIGSD = 0.008722 
    BIGSD = 0.000717 
    CIGSD = 0.007319 
    AIGBACC = 0.01301 
    BIGBACC = 0.002586 
    CIGBACC = 0.005625 
    AIGBINV = 0.01131 
    BIGBINV = 0.0012 
    CIGBINV = 0.001479 
    NIGC =      3 
    NIGBINV =      3 
    NIGBACC =  5.665 
    NTOX =      1 
    EIGBINV =    1.1 
    PIGCD =      1 
    POXEDGE =    1.3 
    XRCRG1 =     12 
    TNOIA =    1.5 
    TNOIB =    3.5 
    NTNOI =      1 
    XRCRG2 =      1 
    BETA0 =    2.8 
    IJTHDFWD =    0.1 
    IJTHSFWD =    0.1 
    IJTHDREV =    0.1 
    IJTHSREV =    0.1 
    XJBVD =      1 
    XJBVS =      1 
    BVD =     12 
    BVS =     12 
    VFB =     -1 
    GBMIN =  1e-12 
    RBDB =     50 
    RBPB =     50 
    RBSB =     50 
    RBPS =     50 
    RBPD =     50 
    CGSL = 1.444e-10 
    CGDL = 1.444e-10 
    CKAPPAS =  3.844 
    CKAPPAD =  3.844 
    CF =      0 
    CLC =      0 
    CLE =    0.6 
    DWC =      0 
    DLC = 6.9e-09 
    DLCIG =  5e-09 
    DWJ =      0 
    VFBCV =      0 
    ACDE =    0.4 
    MOIN =     15 
    NOFF =  2.077 
    VOFFCV = -0.1548 
    DMCG =  7e-08 
    DMCI = 3.5e-08 
    DMDG =  6e-08 
    DMCGT =      0 
    XGW =  4e-08 
    XGL = -2e-09 
    RSHG =     11 
    NGCON =      1 
    TCJ = 0.0006762 
    TPB = 0.001244 
    TCJSW = 0.0006257 
    TPBSW = 0.0006601 
    TCJSWG =      0 
    TPBSWG = 0.002441 
    SK0 =      0 
    SK1 =      0 
    SK2 =      0 
    SL =  2e-06 
    SW =  2e-06 
    K =      0 
    LVSAT =  -2400 
    LA0 =   -0.2 
    LAGS =  0.136 
    LNDEP = 1.972e+17 
    LK3 = -0.03844 
    LLPE0 =  3e-09 
    LDVT0 =    1.8 
    LU0 =  4.488 
    LUTE = 0.05646 
    LMINV = -0.0075 
    LETAB = 0.004725 
    LAIGC = -1e-05 
    LNOFF =   0.04 
    WVSAT =   2000 
    WDSUB =  0.008 
    WVOFF =  0.006 
    TNOM =  298.1 
    CGSO = 9.626e-11 
    CGDO = 9.626e-11 
    CGBO =  1e-12 
    XPART =      0 
    RSH =     12 
    JSS = 1.897e-07 
    JSWS = 3.693e-14 
    JSWGS = 1.15e-13 
    PBS =  0.831 
    MJS = 0.3945 
    PBSWS = 0.5281 
    MJSWS = 0.3549 
    CJS = 0.001346 
    CJSWS = 8.25e-11 
    NJS =  1.022 
    PBSWGS =  1.503 
    MJSWGS = 0.9212 
    CJSWGS = 3.04e-10 
    XTIS =      3 
    JSD = 1.897e-07 
    JSWD = 3.693e-14 
    JSWGD = 1.15e-13 
    PBD =  0.831 
    MJD = 0.3945 
    PBSWD = 0.9633 
    MJSWD = 0.3549 
    CJD = 0.001346 
    CJSWD = 8.25e-11 
    NJD =  1.022 
    PBSWGD =  1.503 
    MJSWGD = 0.9212 
    CJSWGD = 3.04e-10 
    XTID =      3 
    LMLT =      1 
    WMLT =      1 
    LINT =      0 
    LL =      0 
    LLC =      0 
    LLN =      1 
    LW =      0 
    LWC =      0 
    LWN =      1 
    LWL =      0 
    LWLC =      0 
    LMIN =      0 
    LMAX =      1 
    WINT =      0 
    WL =      0 
    WLC =      0 
    WLN =      1 
    WW =      0 
    WWC =      0 
    WWN =      1 
    WWL =      0 
    WWLC =      0 
    WMIN =      0 
    WMAX =      1 
    NOIA = 3.344e+41 
    NOIB = 2.95e+22 
    NOIC = 8.125e+07 
    EM = 4.1e+07 
    EF =   0.95 
    AF =      1 
    KF = 1.5e-27 
    TRS =      0 
    TRD =      0 
    TEMPMOD  =      1 
    LAMBDA   =      0 
    VTL      =  2e+05 m/s
    LC       =  5e-09 
    XN       =      3 
    LLAMBDA  =      0 
    LVTL     =      0 
    LXN      =      0 
    WLAMBDA  =      0 
    WVTL     =      0 
    WXN      =      0 
    PLAMBDA  =      0 
    PVTL     =      0 
    PXN      =      0 
    RNOIA    =  0.577 
    RNOIB    = 0.5164 
    SAREF(SA0) = 4.48e-07 m
    SBREF(SB0) = 4.48e-07 m
    WLOD     =      0 m
    KU0      =      0 1/m
    KVSAT    =      0 
    KVTH0    = 4.5e-10 m
    TKU0     =      0 
    LLODKU0  =      0 
    WLODKU0  =      0 
    LLODVTH  =      0 
    WLODVTH  =      0 
    LKU0     =      0 
    WKU0     =      0 
    PKU0     =      0 
    LKVTH0   =      0 
    WKVTH0   =      0 
    PKVTH0   =      0 
    STK2     =      0 
    LODK2    =      1 
    STETA0   =      0 
    LODETA0  =      1 
    LXRCRG1  =      0 
    WXRCRG1  =      0 
    PXRCRG1  =      0 
    LXRCRG2  =      0 
    WXRCRG2  =      0 
    PXRCRG2  =      0 
     *** UCB's BSIM4.4.0 new diode model is activated. ***
    *** UCB's Diode Model Parameters ***
    JTSS         =      0 
    JTSSWS       =  7e-11 
    JTSSWGS      =  1e-09 
    JTSD         =      0 
    JTSSWD       =  7e-11 
    JTSSWGD      =  1e-09 
    NJTS         =     60 
    NJTSSW       =     60 
    NJTSSWG      =    2.1 
    XTSS         =   0.02 
    XTSSWS       =   0.02 
    XTSSWGS      =   0.02 
    XTSD         =   0.02 
    XTSSWD       =   0.02 
    XTSSWGD      =   0.02 
    TNJTS        =      0 
    TNJTSSW      =      0 
    TNJTSSWG     =      0 
    VFBSDOFF     =      0 
    LVFBSDOFF    =      0 
    WVFBSDOFF    =      0 
    PVFBSDOFF    =      0 
    LINTNOI      =      0 
    VTSS         =     10 
    VTSD         =     10 
    VTSSWS       =     10 
    VTSSWD       =     10 
    VTSSWGS      =    0.9 
    VTSSWGD      =    0.9 
    TTDIOMOD     =      1 
     *** UCB's BSIM4.5.0 new model is activated. ***
    UD         =      0 
    UD1        =      0 
    UP         =   0.36 
    LP         = 3.094e-08 
    TVOFF      = 0.002063 
    TVFBSDOFF  =      0 
    RBPS0      =     50 
    RBPSL      =      0 
    RBPSW      =      0 
    RBPSNF     =      0 
    RBPD0      =     50 
    RBPDL      =      0 
    RBPDW      =      0 
    RBPDNF     =      0 
    RBPBX0     =    100 
    RBPBXL     =      0 
    RBPBXW     =      0 
    RBPBXNF    =      0 
    RBPBY0     =    100 
    RBPBYL     =      0 
    RBPBYW     =      0 
    RBPBYNF    =      0 
    RBSBX0     =    100 
    RBSBY0     =    100 
    RBDBX0     =    100 
    RBDBY0     =    100 
    RBSDBXL    =      0 
    RBSDBXW    =      0 
    RBSDBXNF   =      0 
    RBSDBYL    =      0 
    RBSDBYW    =      0 
    RBSDBYNF   =      0 
    LUD        =      0 
    LUD1       =      0 
    LUP        =      0 
    LLP        =      0 
    LTVOFF     =      0 
    LTVFBSDOFF =      0 
    WUD        =      0 
    WUD1       =      0 
    WUP        =      0 
    WLP        =      0 
    WTVOFF     =      0 
    WTVFBSDOFF =      0 
    PUD        =      0 
    PUD1       =      0 
    PUP        =      0 
    PLP        =      0 
    PTVOFF     =      0 
    PTVFBSDOFF =      0 
    WEB        = 7.5e+05 
    WEC        = -1e+05 
    KVTH0WE    = 1.124e-06 
    K2WE       =      0 
    KU0WE      =      0 
    SCREF      = 2.5e-06 
    WPEMOD     =      1 
    LKVTH0WE   =      0 
    LK2WE      =      0 
    LKU0WE     =      0 
    WKVTH0WE   =      0 
    WK2WE      =      0 
    WKU0WE     =      0 
    PKVTH0WE   =      0 
    PK2WE      =      0 
    PKU0WE     =      0 
  **warning** (four_bit_adder_tb.sp:31) Both nodes of element vgnd are connected together; Line ignored.
  
      
 **info** set option symb=1 internally to help for convergence.
 *****************************************************************
 ******  option summary
 ******
 runlvl  = 3         bypass  = 2         
  Opening plot unit= 15
 file=four_bit_adder_tb.pa0

 **info** dc convergence successful at Newton-Raphson method 
1****** HSPICE -- K-2015.06-2 linux64 (Jun 25 2015) ******                      
 ******  
 # test bench for four bit adder simulation

 ****** operating point information tnom=  25.000 temp=  25.000 ******
 ****** operating point status is voltage   simulation time is     0.     
      node    =voltage        node    =voltage        node    =voltage

 +  0:a0      =   1.0500    0:a1      =   1.0500    0:a2      =   1.0500 
 +  0:a3      =   1.0500    0:b0      =   1.0500    0:b1      =   1.0500 
 +  0:b2      =   1.0500    0:b3      =   1.0500    0:cout    =   1.0489 
 +  0:sum0    = 335.1243u   0:sum1    =   1.0487    0:sum2    =   1.0487 
 +  0:sum3    =   1.0487    0:vdd!    =   1.0500    1:net30   =   1.0489 
 +  1:net32   =   1.0489    1:net35   =   1.0489    2:net033  =  18.7491n
 +  2:net038  = 222.5800u   2:net058  =  74.1980u   2:net059  = 148.3693u
 +  2:net060  = 787.6220m   2:net061  = 989.1728m   2:net11   = 842.9088m
 +  2:net15   =   3.4787u   2:net19   = 236.9585m   2:net23   =   1.7102u
 +  2:net32   =   1.7549u   2:net33   = 848.3209m   3:net033  =  18.7491n
 +  3:net038  = 222.5800u   3:net058  =  74.1980u   3:net059  = 148.3693u
 +  3:net060  = 787.6220m   3:net061  = 989.1728m   3:net11   = 842.9088m
 +  3:net15   =   3.4787u   3:net19   = 236.9585m   3:net23   =   1.7102u
 +  3:net32   =   1.7549u   3:net33   = 848.3209m   4:net033  =  18.7491n
 +  4:net038  = 222.5817u   4:net058  =  74.1985u   4:net059  = 148.3703u
 +  4:net060  = 787.6210m   4:net061  = 989.1726m   4:net11   = 842.9079m
 +  4:net15   =   3.4787u   4:net19   = 236.9588m   4:net23   =   1.7102u
 +  4:net32   =   1.7549u   4:net33   = 848.3209m   5:net033  =   1.6454m
 +  5:net038  =   1.0430    5:net058  =   1.2360m   5:net059  =   2.4731m
 +  5:net060  =   1.0430    5:net061  =   1.0466    5:net11   = 185.7172m
 +  5:net15   =  66.4233u   5:net19   =   1.0458    5:net23   =  16.9042n
 +  5:net32   =  33.2268u   5:net33   = 848.3319m

 ******
 # test bench for four bit adder simulation

 ****** transient analysis tnom=  25.000 temp=  25.000 ******
  **warning** (four_bit_adder_tb.sp:45) .MEASURE  t_rise_cout never reached the trigger value, Measurement failed! 
  **warning** (four_bit_adder_tb.sp:45) .MEASURE  t_rise_cout never reached the target value, Measurement failed! 
   t_rise_cout= failed                          trig= not found
   t_fall_cout= failed                          trig= not found
   tphl_cout= failed                          trig= not found
   tplh_cout= failed                          trig= not found

          ***** job concluded
1****** HSPICE -- K-2015.06-2 linux64 (Jun 25 2015) ******                      
 ******  
 # test bench for four bit adder simulation

 ****** job statistics summary tnom=  25.000 temp=  25.000 ******
  
  
 ******  Machine Information  ******
 CPU:
 model name	: Intel(R) Xeon(R) Silver 4214 CPU @ 2.20GHz
 cpu MHz	: 2699.914
  
 OS:
 Linux version 3.10.0-1160.36.2.el7.x86_64 (mockbuild@x86-040.build.eng.bos.redhat.com) (gcc version 4.8.5 20150623 (Red Hat 4.8.5-44) (GCC) ) #1 SMP Thu Jul 8 02:53:40 UTC 2021


  ******  HSPICE Threads Information  ******

  Command Line Threads Count :     1
  Available CPU Count        :    48
  Actual Threads Count       :     1


  ****** Statistics of Ignored Elements ******
  Voltage Sources :       1

  ******  Circuit Statistics  ******
  # nodes       =      66 # elements   =     121
  # resistors   =       0 # capacitors =       0 # inductors   =       0
  # mutual_inds =       0 # vccs       =       0 # vcvs        =       0
  # cccs        =       0 # ccvs       =       0 # volt_srcs   =       9
  # curr_srcs   =       0 # diodes     =       0 # bjts        =       0
  # jfets       =       0 # mosfets    =     112 # U elements  =       0
  # T elements  =       0 # W elements =       0 # B elements  =       0
  # S elements  =       0 # P elements =       0 # va device   =       0
  # vector_srcs =       0 # N elements =       0


  ******  Runtime Statistics (seconds)  ******

  analysis           time    # points   tot. iter  conv.iter
  op point           0.16           1          14
  transient          0.01       16001          54          27 rev=         0
  readin             0.04
  errchk             0.05
  setup              0.19
  output             0.00


           peak memory used        240.50 megabytes
           total cpu time            0.38 seconds
           total elapsed time        1.01 seconds
           job started at     14:16:50 04/18/2022
           job ended   at     14:16:51 04/18/2022


 lic: Release hspice token(s) 
 lic: total license checkout elapse time:        0.29(s)
