$DATA1 SOURCE='HSPICE' VERSION='K-2015.06-2 linux64'
.TITLE '# test bench for d-flip-flop simulation'
 t_rise_cout      t_fall_cout      tphl_cout        tplh_cout       
 temper           alter#          
  1.633e-11       -2.927e-09        7.317e-09        5.900e-09      
   25.0000        1               
