$DATA1 SOURCE='HSPICE' VERSION='K-2015.06-2 linux64'
.TITLE '# test bench for one bit adder simulation'
 t_rise_cout      t_fall_cout      tphl_cout        tplh_cout       
 t_rise_sum       t_fall_sum       tphl_sum         tplh_sum        
 temper           alter#          
  6.020e-09       -3.968e-09          failed           failed       
  1.023e-09        3.543e-11          failed           failed       
   25.0000        1               
